mop_octamer.pdb
  -OEChem-03112614103D

373396  0     1  0  0  0  0  0999 V2000
   -3.0030   -5.0180   -0.7930 C   0  0  0  0  0  0  0  0  0  0  0  0
   -3.7570   -5.4010   -1.6730 O   0  0  0  0  0  0  0  0  0  0  0  0
   -2.6720   -3.5870   -0.5540 C   0  0  0  0  0  0  0  0  0  0  0  0
   -1.7360   -3.1940    0.4100 C   0  0  0  0  0  0  0  0  0  0  0  0
   -1.5040   -1.8380    0.6510 C   0  0  0  0  0  0  0  0  0  0  0  0
   -2.1870   -0.8470   -0.0720 C   0  0  0  0  0  0  0  0  0  0  0  0
   -1.9240    0.5820    0.1770 C   0  0  0  0  0  0  0  0  0  0  0  0
   -0.6670    1.1800   -0.0710 C   0  0  0  0  0  0  0  0  0  0  0  0
   -0.4890    2.5450    0.2410 C   0  0  0  0  0  0  0  0  0  0  0  0
   -1.5080    3.3180    0.7990 C   0  0  0  0  0  0  0  0  0  0  0  0
   -1.1630    4.6130    1.0600 O   0  0  0  0  0  0  0  0  0  0  0  0
   -2.1310    5.4370    1.6960 C   0  0  0  0  0  0  0  0  0  0  0  0
   -2.7450    2.7310    1.0310 C   0  0  0  0  0  0  0  0  0  0  0  0
   -2.9510    1.3810    0.7160 C   0  0  0  0  0  0  0  0  0  0  0  0
    0.4860    0.4350   -0.6070 C   0  0  0  0  0  0  0  0  0  0  0  0
    0.4610   -0.1870   -1.8610 C   0  0  0  0  0  0  0  0  0  0  0  0
    1.5700   -0.8940   -2.3280 C   0  0  0  0  0  0  0  0  0  0  0  0
    2.7410   -0.9410   -1.5700 C   0  0  0  0  0  0  0  0  0  0  0  0
    2.8060   -0.3000   -0.3250 C   0  0  0  0  0  0  0  0  0  0  0  0
    1.6590    0.3460    0.1560 C   0  0  0  0  0  0  0  0  0  0  0  0
    4.1000   -0.2850    0.4730 C   0  0  2  0  0  0  0  0  0  0  0  0
    4.0270   -1.2170    1.5890 N   0  0  0  0  0  0  0  0  0  0  0  0
    4.4540    1.1500    0.8950 C   0  0  0  0  0  0  0  0  0  0  0  0
   -3.1160   -1.2520   -1.0430 C   0  0  0  0  0  0  0  0  0  0  0  0
   -3.3530   -2.6090   -1.2900 C   0  0  0  0  0  0  0  0  0  0  0  0
   -1.1850   -3.9310    0.9890 H   0  0  0  0  0  0  0  0  0  0  0  0
   -0.7810   -1.5500    1.4130 H   0  0  0  0  0  0  0  0  0  0  0  0
    0.4760    3.0150    0.0470 H   0  0  0  0  0  0  0  0  0  0  0  0
   -1.6650    6.4100    1.8790 H   0  0  0  0  0  0  0  0  0  0  0  0
   -2.4330    5.0300    2.6670 H   0  0  0  0  0  0  0  0  0  0  0  0
   -2.9990    5.5960    1.0470 H   0  0  0  0  0  0  0  0  0  0  0  0
   -3.5730    3.2900    1.4530 H   0  0  0  0  0  0  0  0  0  0  0  0
   -3.9260    0.9390    0.9120 H   0  0  0  0  0  0  0  0  0  0  0  0
   -0.4330   -0.1290   -2.4770 H   0  0  0  0  0  0  0  0  0  0  0  0
    1.5200   -1.4030   -3.2880 H   0  0  0  0  0  0  0  0  0  0  0  0
    3.6060   -1.4720   -1.9630 H   0  0  0  0  0  0  0  0  0  0  0  0
    1.6720    0.8140    1.1390 H   0  0  0  0  0  0  0  0  0  0  0  0
    4.8670   -0.6680   -0.2000 H   0  0  0  0  0  0  0  0  0  0  0  0
    3.1090   -1.5980    1.7840 H   0  0  0  0  0  0  0  0  0  0  0  0
    3.6530    1.6270    1.4680 H   0  0  0  0  0  0  0  0  0  0  0  0
    4.6370    1.7660    0.0060 H   0  0  0  0  0  0  0  0  0  0  0  0
    5.3400    1.2080    1.5290 H   0  0  0  0  0  0  0  0  0  0  0  0
   -3.6590   -0.5060   -1.6200 H   0  0  0  0  0  0  0  0  0  0  0  0
   -4.0770   -2.8940   -2.0510 H   0  0  0  0  0  0  0  0  0  0  0  0
    4.9790   -1.7920    2.3980 C   0  0  0  0  0  0  0  0  0  0  0  0
    4.5840   -2.6350    3.2080 O   0  0  0  0  0  0  0  0  0  0  0  0
    6.4320   -1.4280    2.3920 C   0  0  0  0  0  0  0  0  0  0  0  0
    7.0860   -0.7410    1.3700 C   0  0  0  0  0  0  0  0  0  0  0  0
    8.4040   -0.3090    1.5110 C   0  0  0  0  0  0  0  0  0  0  0  0
    9.1420   -0.6100    2.6570 C   0  0  0  0  0  0  0  0  0  0  0  0
   10.5100   -0.0890    2.7770 C   0  0  0  0  0  0  0  0  0  0  0  0
   10.7730    1.2920    2.9600 C   0  0  0  0  0  0  0  0  0  0  0  0
   12.1110    1.7360    2.8940 C   0  0  0  0  0  0  0  0  0  0  0  0
   13.1660    0.8570    2.6360 C   0  0  0  0  0  0  0  0  0  0  0  0
   14.3930    1.4520    2.5310 O   0  0  0  0  0  0  0  0  0  0  0  0
   15.4690    0.6150    2.1290 C   0  0  0  0  0  0  0  0  0  0  0  0
   12.9000   -0.5020    2.5020 C   0  0  0  0  0  0  0  0  0  0  0  0
   11.5860   -0.9690    2.5780 C   0  0  0  0  0  0  0  0  0  0  0  0
    9.6940    2.2790    3.1740 C   0  0  0  0  0  0  0  0  0  0  0  0
    8.8080    2.1800    4.2580 C   0  0  0  0  0  0  0  0  0  0  0  0
    7.7900    3.1150    4.4470 C   0  0  0  0  0  0  0  0  0  0  0  0
    7.6640    4.1940    3.5750 C   0  0  0  0  0  0  0  0  0  0  0  0
    8.5610    4.3490    2.5060 C   0  0  0  0  0  0  0  0  0  0  0  0
    9.5370    3.3610    2.2960 C   0  0  0  0  0  0  0  0  0  0  0  0
    8.5860    5.6390    1.7130 C   0  0  2  0  0  0  0  0  0  0  0  0
    8.1940    5.4970    0.3080 N   0  0  0  0  0  0  0  0  0  0  0  0
    9.9890    6.2730    1.8170 C   0  0  0  0  0  0  0  0  0  0  0  0
    8.5350   -1.3910    3.6470 C   0  0  0  0  0  0  0  0  0  0  0  0
    7.1940   -1.7860    3.5180 C   0  0  0  0  0  0  0  0  0  0  0  0
    6.6190   -0.4800    0.4380 H   0  0  0  0  0  0  0  0  0  0  0  0
    8.8440    0.2960    0.7190 H   0  0  0  0  0  0  0  0  0  0  0  0
   12.3390    2.7930    3.0320 H   0  0  0  0  0  0  0  0  0  0  0  0
   16.3670    1.2340    2.0410 H   0  0  0  0  0  0  0  0  0  0  0  0
   15.2760    0.1660    1.1480 H   0  0  0  0  0  0  0  0  0  0  0  0
   15.6650   -0.1520    2.8850 H   0  0  0  0  0  0  0  0  0  0  0  0
   13.6810   -1.2310    2.3180 H   0  0  0  0  0  0  0  0  0  0  0  0
   11.3950   -2.0310    2.4310 H   0  0  0  0  0  0  0  0  0  0  0  0
    8.9060    1.3600    4.9640 H   0  0  0  0  0  0  0  0  0  0  0  0
    7.1140    3.0180    5.2930 H   0  0  0  0  0  0  0  0  0  0  0  0
    6.8860    4.9320    3.7660 H   0  0  0  0  0  0  0  0  0  0  0  0
   10.2220    3.4560    1.4550 H   0  0  0  0  0  0  0  0  0  0  0  0
    7.8810    6.3320    2.1860 H   0  0  0  0  0  0  0  0  0  0  0  0
    8.9600    5.7630   -0.2970 H   0  0  0  0  0  0  0  0  0  0  0  0
   10.7780    5.6180    1.4320 H   0  0  0  0  0  0  0  0  0  0  0  0
   10.2280    6.5140    2.8580 H   0  0  0  0  0  0  0  0  0  0  0  0
   10.0600    7.1940    1.2350 H   0  0  0  0  0  0  0  0  0  0  0  0
    9.0850   -1.6630    4.5450 H   0  0  0  0  0  0  0  0  0  0  0  0
    6.7350   -2.3620    4.3210 H   0  0  0  0  0  0  0  0  0  0  0  0
    6.9990    6.0910   -0.0940 C   0  0  0  0  0  0  0  0  0  0  0  0
    5.9200    5.5120   -0.0890 O   0  0  0  0  0  0  0  0  0  0  0  0
    7.0940    7.4990   -0.5800 C   0  0  0  0  0  0  0  0  0  0  0  0
    7.7890    8.4420    0.1770 C   0  0  0  0  0  0  0  0  0  0  0  0
    7.8990    9.7570   -0.2470 C   0  0  0  0  0  0  0  0  0  0  0  0
    7.2840   10.1810   -1.4290 C   0  0  0  0  0  0  0  0  0  0  0  0
    7.4140   11.5950   -1.8070 C   0  0  0  0  0  0  0  0  0  0  0  0
    8.6640   12.1690   -2.1500 C   0  0  0  0  0  0  0  0  0  0  0  0
    8.7350   13.5690   -2.3110 C   0  0  0  0  0  0  0  0  0  0  0  0
    7.6210   14.3920   -2.1240 C   0  0  0  0  0  0  0  0  0  0  0  0
    7.8670   15.7320   -2.2400 O   0  0  0  0  0  0  0  0  0  0  0  0
    6.7710   16.6000   -1.9780 C   0  0  0  0  0  0  0  0  0  0  0  0
    6.3930   13.8140   -1.8200 C   0  0  0  0  0  0  0  0  0  0  0  0
    6.2910   12.4310   -1.6640 C   0  0  0  0  0  0  0  0  0  0  0  0
    9.9070   11.3740   -2.2690 C   0  0  0  0  0  0  0  0  0  0  0  0
   10.0480   10.3380   -3.2040 C   0  0  0  0  0  0  0  0  0  0  0  0
   11.2390    9.6110   -3.2940 C   0  0  0  0  0  0  0  0  0  0  0  0
   12.3270    9.9430   -2.4850 C   0  0  0  0  0  0  0  0  0  0  0  0
   12.2280   10.9890   -1.5570 C   0  0  0  0  0  0  0  0  0  0  0  0
   11.0000   11.6590   -1.4340 C   0  0  0  0  0  0  0  0  0  0  0  0
   13.4610   11.4930   -0.8290 C   0  0  2  0  0  0  0  0  0  0  0  0
   13.4070   11.3550    0.6310 N   0  0  0  0  0  0  0  0  0  0  0  0
   13.6870   12.9710   -1.2160 C   0  0  0  0  0  0  0  0  0  0  0  0
    6.5330    9.2510   -2.1650 C   0  0  0  0  0  0  0  0  0  0  0  0
    6.4310    7.9150   -1.7390 C   0  0  0  0  0  0  0  0  0  0  0  0
    8.2250    8.2010    1.1350 H   0  0  0  0  0  0  0  0  0  0  0  0
    8.4630   10.4610    0.3640 H   0  0  0  0  0  0  0  0  0  0  0  0
    9.6880   14.0360   -2.5590 H   0  0  0  0  0  0  0  0  0  0  0  0
    7.1190   17.6300   -2.0940 H   0  0  0  0  0  0  0  0  0  0  0  0
    6.4100   16.4850   -0.9500 H   0  0  0  0  0  0  0  0  0  0  0  0
    5.9670   16.4360   -2.7020 H   0  0  0  0  0  0  0  0  0  0  0  0
    5.5000   14.4090   -1.6630 H   0  0  0  0  0  0  0  0  0  0  0  0
    5.3320   12.0110   -1.3640 H   0  0  0  0  0  0  0  0  0  0  0  0
    9.2230   10.0880   -3.8680 H   0  0  0  0  0  0  0  0  0  0  0  0
   11.3260    8.7960   -4.0080 H   0  0  0  0  0  0  0  0  0  0  0  0
   13.2600    9.3950   -2.6020 H   0  0  0  0  0  0  0  0  0  0  0  0
   10.9010   12.4510   -0.6930 H   0  0  0  0  0  0  0  0  0  0  0  0
   14.3240   10.9170   -1.1850 H   0  0  0  0  0  0  0  0  0  0  0  0
   13.4740   12.2640    1.0690 H   0  0  0  0  0  0  0  0  0  0  0  0
   12.8480   13.6080   -0.9170 H   0  0  0  0  0  0  0  0  0  0  0  0
   13.8270   13.0700   -2.2980 H   0  0  0  0  0  0  0  0  0  0  0  0
   14.5610   13.4030   -0.7240 H   0  0  0  0  0  0  0  0  0  0  0  0
    6.0210    9.5640   -3.0730 H   0  0  0  0  0  0  0  0  0  0  0  0
    5.8260    7.2100   -2.3050 H   0  0  0  0  0  0  0  0  0  0  0  0
   14.2790   10.4510    1.2340 C   0  0  0  0  0  0  0  0  0  0  0  0
   13.9970    9.2780    1.4450 O   0  0  0  0  0  0  0  0  0  0  0  0
   15.6030   11.0010    1.6620 C   0  0  0  0  0  0  0  0  0  0  0  0
   16.3230   11.8180    0.7900 C   0  0  0  0  0  0  0  0  0  0  0  0
   17.5670   12.3250    1.1420 C   0  0  0  0  0  0  0  0  0  0  0  0
   18.1430   12.0170    2.3760 C   0  0  0  0  0  0  0  0  0  0  0  0
   19.4770   12.5580    2.6770 C   0  0  0  0  0  0  0  0  0  0  0  0
   19.7190   13.9510    2.7940 C   0  0  0  0  0  0  0  0  0  0  0  0
   21.0550   14.3910    2.9230 C   0  0  0  0  0  0  0  0  0  0  0  0
   22.1330   13.5000    2.9170 C   0  0  0  0  0  0  0  0  0  0  0  0
   23.3700   14.0810    3.0090 O   0  0  0  0  0  0  0  0  0  0  0  0
   24.4890   13.2050    2.9160 C   0  0  0  0  0  0  0  0  0  0  0  0
   21.8840   12.1370    2.8070 C   0  0  0  0  0  0  0  0  0  0  0  0
   20.5720   11.6720    2.6890 C   0  0  0  0  0  0  0  0  0  0  0  0
   18.6380   14.9600    2.7060 C   0  0  0  0  0  0  0  0  0  0  0  0
   17.5750   14.9990    3.6220 C   0  0  0  0  0  0  0  0  0  0  0  0
   16.5570   15.9480    3.5020 C   0  0  0  0  0  0  0  0  0  0  0  0
   16.6120   16.9100    2.4950 C   0  0  0  0  0  0  0  0  0  0  0  0
   17.6820   16.9310    1.5900 C   0  0  0  0  0  0  0  0  0  0  0  0
   18.6600   15.9250    1.6820 C   0  0  0  0  0  0  0  0  0  0  0  0
   17.8670   18.1150    0.6630 C   0  0  2  0  0  0  0  0  0  0  0  0
   17.7640   17.7920   -0.7660 N   0  0  0  0  0  0  0  0  0  0  0  0
   19.2240   18.7800    0.9890 C   0  0  0  0  0  0  0  0  0  0  0  0
   17.4380   11.1690    3.2470 C   0  0  0  0  0  0  0  0  0  0  0  0
   16.1810   10.6490    2.8850 C   0  0  0  0  0  0  0  0  0  0  0  0
   15.9740   12.0430   -0.2040 H   0  0  0  0  0  0  0  0  0  0  0  0
   18.0950   12.9620    0.4350 H   0  0  0  0  0  0  0  0  0  0  0  0
   21.2620   15.4580    3.0040 H   0  0  0  0  0  0  0  0  0  0  0  0
   25.4020   13.8040    2.9830 H   0  0  0  0  0  0  0  0  0  0  0  0
   24.5030   12.6880    1.9500 H   0  0  0  0  0  0  0  0  0  0  0  0
   24.4990   12.4930    3.7490 H   0  0  0  0  0  0  0  0  0  0  0  0
   22.6860   11.4070    2.7880 H   0  0  0  0  0  0  0  0  0  0  0  0
   20.4080   10.6040    2.5480 H   0  0  0  0  0  0  0  0  0  0  0  0
   17.5310   14.2880    4.4430 H   0  0  0  0  0  0  0  0  0  0  0  0
   15.7300   15.9550    4.2070 H   0  0  0  0  0  0  0  0  0  0  0  0
   15.8270   17.6630    2.4500 H   0  0  0  0  0  0  0  0  0  0  0  0
   19.4810   15.9180    0.9660 H   0  0  0  0  0  0  0  0  0  0  0  0
   17.0820   18.8480    0.8840 H   0  0  0  0  0  0  0  0  0  0  0  0
   18.5980   18.0870   -1.2580 H   0  0  0  0  0  0  0  0  0  0  0  0
   20.0680   18.1170    0.7690 H   0  0  0  0  0  0  0  0  0  0  0  0
   19.2720   19.0550    2.0480 H   0  0  0  0  0  0  0  0  0  0  0  0
   19.4030   19.6890    0.4100 H   0  0  0  0  0  0  0  0  0  0  0  0
   17.8670   10.9080    4.2120 H   0  0  0  0  0  0  0  0  0  0  0  0
   15.6670    9.9620    3.5530 H   0  0  0  0  0  0  0  0  0  0  0  0
   16.6040   18.1930   -1.4340 C   0  0  0  0  0  0  0  0  0  0  0  0
   15.5600   17.5780   -1.4120 O   0  0  0  0  0  0  0  0  0  0  0  0
   16.7250   19.4890   -2.1780 C   0  0  0  0  0  0  0  0  0  0  0  0
   17.3830   20.5590   -1.5680 C   0  0  0  0  0  0  0  0  0  0  0  0
   17.5000   21.7870   -2.2030 C   0  0  0  0  0  0  0  0  0  0  0  0
   16.9430   22.0000   -3.4670 C   0  0  0  0  0  0  0  0  0  0  0  0
   17.0620   23.3470   -4.0580 C   0  0  0  0  0  0  0  0  0  0  0  0
   18.3150   23.9430   -4.3620 C   0  0  0  0  0  0  0  0  0  0  0  0
   18.3430   25.2940   -4.7740 C   0  0  0  0  0  0  0  0  0  0  0  0
   17.1810   26.0650   -4.8490 C   0  0  0  0  0  0  0  0  0  0  0  0
   17.3790   27.3670   -5.2200 O   0  0  0  0  0  0  0  0  0  0  0  0
   16.2260   28.1970   -5.2810 C   0  0  0  0  0  0  0  0  0  0  0  0
   15.9590   25.4780   -4.5390 C   0  0  0  0  0  0  0  0  0  0  0  0
   15.9010   24.1320   -4.1640 C   0  0  0  0  0  0  0  0  0  0  0  0
   19.5960   23.2230   -4.2030 C   0  0  0  0  0  0  0  0  0  0  0  0
   19.8870   22.0740   -4.9490 C   0  0  0  0  0  0  0  0  0  0  0  0
   21.0870   21.3850   -4.7610 C   0  0  0  0  0  0  0  0  0  0  0  0
   22.0410   21.8690   -3.8640 C   0  0  0  0  0  0  0  0  0  0  0  0
   21.8020   23.0440   -3.1360 C   0  0  0  0  0  0  0  0  0  0  0  0
   20.5560   23.6770   -3.2800 C   0  0  0  0  0  0  0  0  0  0  0  0
   22.9250   23.7000   -2.3530 C   0  0  2  0  0  0  0  0  0  0  0  0
   22.6830   23.7920   -0.9070 N   0  0  0  0  0  0  0  0  0  0  0  0
   23.1760   25.1010   -2.9590 C   0  0  0  0  0  0  0  0  0  0  0  0
   16.2450   20.9370   -4.0700 C   0  0  0  0  0  0  0  0  0  0  0  0
   16.1340   19.6860   -3.4280 C   0  0  0  0  0  0  0  0  0  0  0  0
   17.7790   20.4860   -0.5670 H   0  0  0  0  0  0  0  0  0  0  0  0
   18.0200   22.5950   -1.6910 H   0  0  0  0  0  0  0  0  0  0  0  0
   19.2930   25.7660   -5.0240 H   0  0  0  0  0  0  0  0  0  0  0  0
   16.5370   29.1870   -5.6290 H   0  0  0  0  0  0  0  0  0  0  0  0
   15.7740   28.3130   -4.2900 H   0  0  0  0  0  0  0  0  0  0  0  0
   15.5000   27.8070   -6.0020 H   0  0  0  0  0  0  0  0  0  0  0  0
   15.0290   26.0350   -4.5560 H   0  0  0  0  0  0  0  0  0  0  0  0
   14.9360   23.7080   -3.8930 H   0  0  0  0  0  0  0  0  0  0  0  0
   19.1660   21.7010   -5.6730 H   0  0  0  0  0  0  0  0  0  0  0  0
   21.2830   20.4770   -5.3240 H   0  0  0  0  0  0  0  0  0  0  0  0
   22.9810   21.3330   -3.7540 H   0  0  0  0  0  0  0  0  0  0  0  0
   20.3360   24.5590   -2.6800 H   0  0  0  0  0  0  0  0  0  0  0  0
   23.8380   23.1060   -2.4960 H   0  0  0  0  0  0  0  0  0  0  0  0
   22.6810   24.7550   -0.5980 H   0  0  0  0  0  0  0  0  0  0  0  0
   22.3220   25.7720   -2.8070 H   0  0  0  0  0  0  0  0  0  0  0  0
   23.3690   25.0310   -4.0350 H   0  0  0  0  0  0  0  0  0  0  0  0
   24.0280   25.6170   -2.5160 H   0  0  0  0  0  0  0  0  0  0  0  0
   15.7780   21.0760   -5.0440 H   0  0  0  0  0  0  0  0  0  0  0  0
   15.5860   18.8750   -3.9010 H   0  0  0  0  0  0  0  0  0  0  0  0
   23.4450   22.9810   -0.0670 C   0  0  0  0  0  0  0  0  0  0  0  0
   23.1980   21.8020    0.1500 O   0  0  0  0  0  0  0  0  0  0  0  0
   24.6390   23.6350    0.5530 C   0  0  0  0  0  0  0  0  0  0  0  0
   25.4130   24.4930   -0.2270 C   0  0  0  0  0  0  0  0  0  0  0  0
   26.5780   25.0660    0.2570 C   0  0  0  0  0  0  0  0  0  0  0  0
   27.0260   24.7900    1.5480 C   0  0  0  0  0  0  0  0  0  0  0  0
   28.3070   25.3820    1.9760 C   0  0  0  0  0  0  0  0  0  0  0  0
   28.5290   26.7850    2.0080 C   0  0  0  0  0  0  0  0  0  0  0  0
   29.8360   27.2490    2.2780 C   0  0  0  0  0  0  0  0  0  0  0  0
   30.9080   26.3720    2.4860 C   0  0  0  0  0  0  0  0  0  0  0  0
   32.1130   26.9760    2.7200 O   0  0  0  0  0  0  0  0  0  0  0  0
   33.2370   26.1210    2.8850 C   0  0  0  0  0  0  0  0  0  0  0  0
   30.6860   25.0010    2.4260 C   0  0  0  0  0  0  0  0  0  0  0  0
   29.3980   24.5150    2.1860 C   0  0  0  0  0  0  0  0  0  0  0  0
   27.4650   27.7720    1.6970 C   0  0  0  0  0  0  0  0  0  0  0  0
   26.2830   27.8500    2.4480 C   0  0  0  0  0  0  0  0  0  0  0  0
   25.2770   28.7640    2.1200 C   0  0  0  0  0  0  0  0  0  0  0  0
   25.4350   29.6270    1.0420 C   0  0  0  0  0  0  0  0  0  0  0  0
   26.6170   29.6060    0.2910 C   0  0  0  0  0  0  0  0  0  0  0  0
   27.6080   28.6570    0.6150 C   0  0  0  0  0  0  0  0  0  0  0  0
   26.8720   30.6950   -0.7300 C   0  0  2  0  0  0  0  0  0  0  0  0
   26.9640   30.1880   -2.1040 N   0  0  0  0  0  0  0  0  0  0  0  0
   28.1600   31.4330   -0.3000 C   0  0  0  0  0  0  0  0  0  0  0  0
   26.2670   23.9020    2.3350 C   0  0  0  0  0  0  0  0  0  0  0  0
   25.0800   23.3230    1.8400 C   0  0  0  0  0  0  0  0  0  0  0  0
   25.1800   24.6890   -1.2580 H   0  0  0  0  0  0  0  0  0  0  0  0
   27.1520   25.7130   -0.4040 H   0  0  0  0  0  0  0  0  0  0  0  0
   30.0310   28.3210    2.3030 H   0  0  0  0  0  0  0  0  0  0  0  0
   34.1150   26.7510    3.0550 H   0  0  0  0  0  0  0  0  0  0  0  0
   33.4240   25.5370    1.9770 H   0  0  0  0  0  0  0  0  0  0  0  0
   33.1170   25.4690    3.7570 H   0  0  0  0  0  0  0  0  0  0  0  0
   31.4890   24.2790    2.5350 H   0  0  0  0  0  0  0  0  0  0  0  0
   29.2560   23.4390    2.1000 H   0  0  0  0  0  0  0  0  0  0  0  0
   26.1300   27.1920    3.2990 H   0  0  0  0  0  0  0  0  0  0  0  0
   24.3750   28.8130    2.7250 H   0  0  0  0  0  0  0  0  0  0  0  0
   24.6490   30.3440    0.8100 H   0  0  0  0  0  0  0  0  0  0  0  0
   28.5270   28.6250    0.0290 H   0  0  0  0  0  0  0  0  0  0  0  0
   26.0450   31.4200   -0.7010 H   0  0  0  0  0  0  0  0  0  0  0  0
   27.8980   30.2880   -2.4750 H   0  0  0  0  0  0  0  0  0  0  0  0
   29.0350   30.7770   -0.3430 H   0  0  0  0  0  0  0  0  0  0  0  0
   28.0640   31.8120    0.7240 H   0  0  0  0  0  0  0  0  0  0  0  0
   28.4180   32.2870   -0.9250 H   0  0  0  0  0  0  0  0  0  0  0  0
   26.6020   23.6370    3.3360 H   0  0  0  0  0  0  0  0  0  0  0  0
   24.5210   22.6190    2.4530 H   0  0  0  0  0  0  0  0  0  0  0  0
   25.9700   30.5600   -3.0080 C   0  0  0  0  0  0  0  0  0  0  0  0
   24.8610   30.0400   -3.0590 O   0  0  0  0  0  0  0  0  0  0  0  0
   26.3050   31.7040   -3.9080 C   0  0  0  0  0  0  0  0  0  0  0  0
   26.9850   32.7890   -3.3590 C   0  0  0  0  0  0  0  0  0  0  0  0
   27.2400   33.9350   -4.0910 C   0  0  0  0  0  0  0  0  0  0  0  0
   26.8030   34.0470   -5.4090 C   0  0  0  0  0  0  0  0  0  0  0  0
   27.0060   35.3290   -6.1030 C   0  0  0  0  0  0  0  0  0  0  0  0
   28.2900   35.9030   -6.2980 C   0  0  0  0  0  0  0  0  0  0  0  0
   28.3660   37.2060   -6.8370 C   0  0  0  0  0  0  0  0  0  0  0  0
   27.2200   37.9370   -7.1650 C   0  0  0  0  0  0  0  0  0  0  0  0
   27.4560   39.1900   -7.6630 O   0  0  0  0  0  0  0  0  0  0  0  0
   26.3120   39.9800   -7.9660 C   0  0  0  0  0  0  0  0  0  0  0  0
   25.9680   37.3710   -6.9550 C   0  0  0  0  0  0  0  0  0  0  0  0
   25.8630   36.0820   -6.4330 C   0  0  0  0  0  0  0  0  0  0  0  0
   29.5410   35.2200   -5.8880 C   0  0  0  0  0  0  0  0  0  0  0  0
   29.9180   33.9800   -6.4210 C   0  0  0  0  0  0  0  0  0  0  0  0
   31.0770   33.3320   -5.9860 C   0  0  0  0  0  0  0  0  0  0  0  0
   31.8990   33.9300   -5.0310 C   0  0  0  0  0  0  0  0  0  0  0  0
   31.5710   35.1810   -4.4960 C   0  0  0  0  0  0  0  0  0  0  0  0
   30.3750   35.7970   -4.9130 C   0  0  0  0  0  0  0  0  0  0  0  0
   32.5570   35.9040   -3.5970 C   0  0  2  0  0  0  0  0  0  0  0  0
   32.0520   36.1250   -2.2380 N   0  0  0  0  0  0  0  0  0  0  0  0
   32.9360   37.2380   -4.2790 C   0  0  0  0  0  0  0  0  0  0  0  0
   26.0980   32.9670   -5.9690 C   0  0  0  0  0  0  0  0  0  0  0  0
   25.8370   31.8030   -5.2200 C   0  0  0  0  0  0  0  0  0  0  0  0
   27.2620   32.8150   -2.3230 H   0  0  0  0  0  0  0  0  0  0  0  0
   27.7500   34.7630   -3.6010 H   0  0  0  0  0  0  0  0  0  0  0  0
   29.3380   37.6750   -6.9860 H   0  0  0  0  0  0  0  0  0  0  0  0
   26.6610   40.9520   -8.3260 H   0  0  0  0  0  0  0  0  0  0  0  0
   25.7070   40.1570   -7.0710 H   0  0  0  0  0  0  0  0  0  0  0  0
   25.7150   39.5210   -8.7620 H   0  0  0  0  0  0  0  0  0  0  0  0
   25.0500   37.9110   -7.1610 H   0  0  0  0  0  0  0  0  0  0  0  0
   24.8710   35.6820   -6.2240 H   0  0  0  0  0  0  0  0  0  0  0  0
   29.2950   33.5000   -7.1730 H   0  0  0  0  0  0  0  0  0  0  0  0
   31.3500   32.3630   -6.3960 H   0  0  0  0  0  0  0  0  0  0  0  0
   32.8110   33.4190   -4.7260 H   0  0  0  0  0  0  0  0  0  0  0  0
   30.0910   36.7550   -4.4790 H   0  0  0  0  0  0  0  0  0  0  0  0
   33.4730   35.3020   -3.5150 H   0  0  0  0  0  0  0  0  0  0  0  0
   31.9130   37.1060   -2.0360 H   0  0  0  0  0  0  0  0  0  0  0  0
   32.0780   37.9150   -4.3530 H   0  0  0  0  0  0  0  0  0  0  0  0
   33.3320   37.0600   -5.2850 H   0  0  0  0  0  0  0  0  0  0  0  0
   33.6950   37.8070   -3.7450 H   0  0  0  0  0  0  0  0  0  0  0  0
   25.7160   33.0420   -6.9850 H   0  0  0  0  0  0  0  0  0  0  0  0
   25.2410   31.0050   -5.6570 H   0  0  0  0  0  0  0  0  0  0  0  0
   32.6460   35.4180   -1.1970 C   0  0  0  0  0  0  0  0  0  0  0  0
   32.4070   34.2430   -0.9480 O   0  0  0  0  0  0  0  0  0  0  0  0
   33.6730   36.1640   -0.3990 C   0  0  0  0  0  0  0  0  0  0  0  0
   34.5030   37.0660   -1.0600 C   0  0  0  0  0  0  0  0  0  0  0  0
   35.5540   37.7000   -0.4200 C   0  0  0  0  0  0  0  0  0  0  0  0
   35.8360   37.4280    0.9210 C   0  0  0  0  0  0  0  0  0  0  0  0
   37.0200   38.0450    1.5320 C   0  0  0  0  0  0  0  0  0  0  0  0
   37.2180   39.4510    1.5970 C   0  0  0  0  0  0  0  0  0  0  0  0
   38.4420   39.9300    2.1080 C   0  0  0  0  0  0  0  0  0  0  0  0
   39.4740   39.0690    2.4950 C   0  0  0  0  0  0  0  0  0  0  0  0
   40.6210   39.6870    2.9130 O   0  0  0  0  0  0  0  0  0  0  0  0
   41.6840   38.8370    3.3320 C   0  0  0  0  0  0  0  0  0  0  0  0
   39.2830   37.6960    2.4020 C   0  0  0  0  0  0  0  0  0  0  0  0
   38.0650   37.1920    1.9440 C   0  0  0  0  0  0  0  0  0  0  0  0
   36.2330   40.4320    1.0800 C   0  0  0  0  0  0  0  0  0  0  0  0
   34.9240   40.4960    1.5810 C   0  0  0  0  0  0  0  0  0  0  0  0
   33.9830   41.3610    1.0190 C   0  0  0  0  0  0  0  0  0  0  0  0
   34.3420   42.1960   -0.0380 C   0  0  0  0  0  0  0  0  0  0  0  0
   35.6470   42.1800   -0.5540 C   0  0  0  0  0  0  0  0  0  0  0  0
   36.5800   41.2970    0.0190 C   0  0  0  0  0  0  0  0  0  0  0  0
   36.0120   43.1080   -1.6990 C   0  0  2  0  0  0  0  0  0  0  0  0
   36.4750   42.4040   -2.8720 N   0  0  0  0  0  0  0  0  0  0  0  0
   37.0350   44.1670   -1.2770 C   0  0  0  0  0  0  0  0  0  0  0  0
   35.0090   36.5110    1.5930 C   0  0  0  0  0  0  0  0  0  0  0  0
   33.9300   35.8800    0.9440 C   0  0  0  0  0  0  0  0  0  0  0  0
   34.4100   37.2500   -2.1100 H   0  0  0  0  0  0  0  0  0  0  0  0
   36.1760   38.3880   -0.9900 H   0  0  0  0  0  0  0  0  0  0  0  0
   38.6010   41.0040    2.1840 H   0  0  0  0  0  0  0  0  0  0  0  0
   42.5350   39.4660    3.6110 H   0  0  0  0  0  0  0  0  0  0  0  0
   42.0170   38.1840    2.5180 H   0  0  0  0  0  0  0  0  0  0  0  0
   41.3890   38.2540    4.2110 H   0  0  0  0  0  0  0  0  0  0  0  0
   40.0640   36.9850    2.6490 H   0  0  0  0  0  0  0  0  0  0  0  0
   37.9530   36.1120    1.8520 H   0  0  0  0  0  0  0  0  0  0  0  0
   34.6200   39.8560    2.4070 H   0  0  0  0  0  0  0  0  0  0  0  0
   32.9640   41.3760    1.4010 H   0  0  0  0  0  0  0  0  0  0  0  0
   33.5910   42.8590   -0.4630 H   0  0  0  0  0  0  0  0  0  0  0  0
   37.5910   41.2600   -0.3840 H   0  0  0  0  0  0  0  0  0  0  0  0
   35.1070   43.6440   -2.0100 H   0  0  0  0  0  0  0  0  0  0  0  0
   37.4800   42.3610   -3.0660 H   0  0  0  0  0  0  0  0  0  0  0  0
   37.9440   43.7140   -0.8670 H   0  0  0  0  0  0  0  0  0  0  0  0
   36.6190   44.8390   -0.5190 H   0  0  0  0  0  0  0  0  0  0  0  0
   37.3390   44.7810   -2.1330 H   0  0  0  0  0  0  0  0  0  0  0  0
   35.2170   36.2690    2.6340 H   0  0  0  0  0  0  0  0  0  0  0  0
   33.3230   35.1600    1.4820 H   0  0  0  0  0  0  0  0  0  0  0  0
   -2.7660   -7.1740    0.1040 C   0  0  0  0  0  0  0  0  0  0  0  0
   -2.4030   -5.7950    0.1430 O   0  0  0  0  0  0  0  0  0  0  0  0
   -3.6700   -7.3170    0.7020 H   0  0  0  0  0  0  0  0  0  0  0  0
   -1.9550   -7.7550    0.5540 H   0  0  0  0  0  0  0  0  0  0  0  0
   -2.9170   -7.5350   -0.9170 H   0  0  0  0  0  0  0  0  0  0  0  0
   36.9210   41.8130   -7.3390 C   0  0  0  0  0  0  0  0  0  0  0  0
   35.8510   41.4510   -6.2910 C   0  0  0  0  0  0  0  0  0  0  0  0
   34.5570   42.1840   -6.6690 C   0  0  0  0  0  0  0  0  0  0  0  0
   35.6350   39.9360   -6.2860 C   0  0  0  0  0  0  0  0  0  0  0  0
   36.4200   41.8420   -5.0060 O   0  0  0  0  0  0  0  0  0  0  0  0
   35.6590   42.0310   -3.9010 C   0  0  0  0  0  0  0  0  0  0  0  0
   34.4450   41.9510   -3.8330 O   0  0  0  0  0  0  0  0  0  0  0  0
   36.6440   41.4720   -8.3430 H   0  0  0  0  0  0  0  0  0  0  0  0
   37.0730   42.8990   -7.3820 H   0  0  0  0  0  0  0  0  0  0  0  0
   37.8940   41.3780   -7.0830 H   0  0  0  0  0  0  0  0  0  0  0  0
   34.6520   43.2660   -6.5320 H   0  0  0  0  0  0  0  0  0  0  0  0
   33.7080   41.8510   -6.0640 H   0  0  0  0  0  0  0  0  0  0  0  0
   34.2930   41.9870   -7.7140 H   0  0  0  0  0  0  0  0  0  0  0  0
   36.5820   39.4160   -6.1040 H   0  0  0  0  0  0  0  0  0  0  0  0
   34.9540   39.6410   -5.4810 H   0  0  0  0  0  0  0  0  0  0  0  0
   35.2240   39.5760   -7.2360 H   0  0  0  0  0  0  0  0  0  0  0  0
  1  3  1  0  0  0  0
  1354  1  0  0  0  0
  1  2  2  0  0  0  0
  3  4  2  0  0  0  0
  4  5  1  0  0  0  0
  4 26  1  0  0  0  0
  5 27  1  0  0  0  0
  6  7  1  0  0  0  0
  5  6  2  0  0  0  0
  7 14  2  0  0  0  0
  7  8  1  0  0  0  0
  8  9  2  0  0  0  0
  9 10  1  0  0  0  0
 10 13  2  0  0  0  0
 10 11  1  0  0  0  0
 11 12  1  0  0  0  0
 12 29  1  0  0  0  0
 12 30  1  0  0  0  0
 13 32  1  0  0  0  0
 14 33  1  0  0  0  0
 13 14  1  0  0  0  0
  8 15  1  0  0  0  0
 15 20  1  0  0  0  0
 15 16  2  0  0  0  0
 16 17  1  0  0  0  0
 17 18  2  0  0  0  0
 18 19  1  0  0  0  0
 19 20  2  0  0  0  0
 19 21  1  0  0  0  0
 20 37  1  0  0  0  0
 21 38  1  0  0  0  0
 21 23  1  0  0  0  0
 21 22  1  0  0  0  0
 22 39  1  0  0  0  0
 22 45  1  0  0  0  0
 23 40  1  0  0  0  0
 23 42  1  0  0  0  0
  6 24  1  0  0  0  0
 24 25  2  0  0  0  0
  3 25  1  0  0  0  0
  9 28  1  0  0  0  0
 12 31  1  0  0  0  0
 16 34  1  0  0  0  0
 17 35  1  0  0  0  0
 18 36  1  0  0  0  0
 23 41  1  0  0  0  0
 24 43  1  0  0  0  0
 25 44  1  0  0  0  0
 45 46  2  0  0  0  0
 45 47  1  0  0  0  0
 47 69  2  0  0  0  0
 48 49  2  0  0  0  0
 47 48  1  0  0  0  0
 49 50  1  0  0  0  0
 50 51  1  0  0  0  0
 50 68  2  0  0  0  0
 51 52  1  0  0  0  0
 52 59  1  0  0  0  0
 52 53  2  0  0  0  0
 53 72  1  0  0  0  0
 53 54  1  0  0  0  0
 54 55  1  0  0  0  0
 55 56  1  0  0  0  0
 56 75  1  0  0  0  0
 57 58  1  0  0  0  0
 54 57  2  0  0  0  0
 51 58  2  0  0  0  0
 59 60  2  0  0  0  0
 60 61  1  0  0  0  0
 60 78  1  0  0  0  0
 61 79  1  0  0  0  0
 62 80  1  0  0  0  0
 61 62  2  0  0  0  0
 62 63  1  0  0  0  0
 63 64  2  0  0  0  0
 59 64  1  0  0  0  0
 65 67  1  0  0  0  0
 65 82  1  0  0  0  0
 63 65  1  0  0  0  0
 65 66  1  0  0  0  0
 67 85  1  0  0  0  0
 68 87  1  0  0  0  0
 68 69  1  0  0  0  0
 69 88  1  0  0  0  0
 48 70  1  0  0  0  0
 49 71  1  0  0  0  0
 56 73  1  0  0  0  0
 56 74  1  0  0  0  0
 57 76  1  0  0  0  0
 58 77  1  0  0  0  0
 64 81  1  0  0  0  0
 66 83  1  0  0  0  0
 67 84  1  0  0  0  0
 67 86  1  0  0  0  0
 89 90  2  0  0  0  0
 66 89  1  0  0  0  0
 89 91  1  0  0  0  0
 91 92  2  0  0  0  0
 92114  1  0  0  0  0
 92 93  1  0  0  0  0
 93115  1  0  0  0  0
 93 94  2  0  0  0  0
 95102  2  0  0  0  0
 94 95  1  0  0  0  0
 95 96  1  0  0  0  0
 96 97  2  0  0  0  0
 97 98  1  0  0  0  0
 98101  2  0  0  0  0
 98 99  1  0  0  0  0
 99100  1  0  0  0  0
100118  1  0  0  0  0
101102  1  0  0  0  0
101120  1  0  0  0  0
102121  1  0  0  0  0
 96103  1  0  0  0  0
103108  1  0  0  0  0
103104  2  0  0  0  0
104105  1  0  0  0  0
105106  2  0  0  0  0
106107  1  0  0  0  0
107108  2  0  0  0  0
107109  1  0  0  0  0
108125  1  0  0  0  0
109126  1  0  0  0  0
109110  1  0  0  0  0
110127  1  0  0  0  0
110133  1  0  0  0  0
111128  1  0  0  0  0
109111  1  0  0  0  0
111130  1  0  0  0  0
112113  2  0  0  0  0
 94112  1  0  0  0  0
 91113  1  0  0  0  0
 97116  1  0  0  0  0
100117  1  0  0  0  0
100119  1  0  0  0  0
104122  1  0  0  0  0
105123  1  0  0  0  0
106124  1  0  0  0  0
111129  1  0  0  0  0
112131  1  0  0  0  0
113132  1  0  0  0  0
133134  2  0  0  0  0
133135  1  0  0  0  0
135157  2  0  0  0  0
136137  2  0  0  0  0
135136  1  0  0  0  0
137138  1  0  0  0  0
138139  1  0  0  0  0
138156  2  0  0  0  0
139146  2  0  0  0  0
139140  1  0  0  0  0
140141  2  0  0  0  0
141160  1  0  0  0  0
141142  1  0  0  0  0
142143  1  0  0  0  0
144161  1  0  0  0  0
143144  1  0  0  0  0
144163  1  0  0  0  0
142145  2  0  0  0  0
145146  1  0  0  0  0
140147  1  0  0  0  0
147148  2  0  0  0  0
148166  1  0  0  0  0
148149  1  0  0  0  0
149167  1  0  0  0  0
149150  2  0  0  0  0
151152  2  0  0  0  0
150151  1  0  0  0  0
147152  1  0  0  0  0
153170  1  0  0  0  0
153155  1  0  0  0  0
151153  1  0  0  0  0
153154  1  0  0  0  0
155173  1  0  0  0  0
156175  1  0  0  0  0
156157  1  0  0  0  0
157176  1  0  0  0  0
136158  1  0  0  0  0
137159  1  0  0  0  0
144162  1  0  0  0  0
145164  1  0  0  0  0
146165  1  0  0  0  0
150168  1  0  0  0  0
152169  1  0  0  0  0
154171  1  0  0  0  0
155172  1  0  0  0  0
155174  1  0  0  0  0
177178  2  0  0  0  0
154177  1  0  0  0  0
179180  2  0  0  0  0
177179  1  0  0  0  0
180202  1  0  0  0  0
181203  1  0  0  0  0
180181  1  0  0  0  0
181182  2  0  0  0  0
182183  1  0  0  0  0
184191  1  0  0  0  0
183184  1  0  0  0  0
184185  2  0  0  0  0
185186  1  0  0  0  0
186189  2  0  0  0  0
186187  1  0  0  0  0
187188  1  0  0  0  0
188206  1  0  0  0  0
189190  1  0  0  0  0
183190  2  0  0  0  0
190209  1  0  0  0  0
191196  2  0  0  0  0
192193  2  0  0  0  0
191192  1  0  0  0  0
193194  1  0  0  0  0
194212  1  0  0  0  0
194195  2  0  0  0  0
195197  1  0  0  0  0
195196  1  0  0  0  0
196213  1  0  0  0  0
197214  1  0  0  0  0
197198  1  0  0  0  0
198215  1  0  0  0  0
198221  1  0  0  0  0
199216  1  0  0  0  0
199218  1  0  0  0  0
197199  1  0  0  0  0
182200  1  0  0  0  0
200201  2  0  0  0  0
179201  1  0  0  0  0
185204  1  0  0  0  0
188205  1  0  0  0  0
188207  1  0  0  0  0
189208  1  0  0  0  0
192210  1  0  0  0  0
193211  1  0  0  0  0
199217  1  0  0  0  0
200219  1  0  0  0  0
201220  1  0  0  0  0
221222  2  0  0  0  0
221223  1  0  0  0  0
223245  2  0  0  0  0
224225  2  0  0  0  0
223224  1  0  0  0  0
225226  1  0  0  0  0
226227  1  0  0  0  0
226244  2  0  0  0  0
227228  1  0  0  0  0
227234  2  0  0  0  0
228229  2  0  0  0  0
229248  1  0  0  0  0
229230  1  0  0  0  0
230231  1  0  0  0  0
231232  1  0  0  0  0
232249  1  0  0  0  0
232251  1  0  0  0  0
230233  2  0  0  0  0
233252  1  0  0  0  0
233234  1  0  0  0  0
228235  1  0  0  0  0
235236  2  0  0  0  0
236254  1  0  0  0  0
236237  1  0  0  0  0
237255  1  0  0  0  0
237238  2  0  0  0  0
239240  2  0  0  0  0
238239  1  0  0  0  0
235240  1  0  0  0  0
241258  1  0  0  0  0
241243  1  0  0  0  0
239241  1  0  0  0  0
241242  1  0  0  0  0
243261  1  0  0  0  0
244263  1  0  0  0  0
244245  1  0  0  0  0
245264  1  0  0  0  0
224246  1  0  0  0  0
225247  1  0  0  0  0
232250  1  0  0  0  0
234253  1  0  0  0  0
238256  1  0  0  0  0
240257  1  0  0  0  0
242259  1  0  0  0  0
243260  1  0  0  0  0
243262  1  0  0  0  0
242265  1  0  0  0  0
265266  2  0  0  0  0
267268  2  0  0  0  0
265267  1  0  0  0  0
268290  1  0  0  0  0
269291  1  0  0  0  0
268269  1  0  0  0  0
269270  2  0  0  0  0
270271  1  0  0  0  0
271272  1  0  0  0  0
272279  1  0  0  0  0
272273  2  0  0  0  0
274277  2  0  0  0  0
273274  1  0  0  0  0
274275  1  0  0  0  0
275276  1  0  0  0  0
276294  1  0  0  0  0
277278  1  0  0  0  0
278297  1  0  0  0  0
271278  2  0  0  0  0
279284  2  0  0  0  0
280281  2  0  0  0  0
279280  1  0  0  0  0
281282  1  0  0  0  0
282300  1  0  0  0  0
282283  2  0  0  0  0
283285  1  0  0  0  0
283284  1  0  0  0  0
284301  1  0  0  0  0
285302  1  0  0  0  0
285286  1  0  0  0  0
286303  1  0  0  0  0
286309  1  0  0  0  0
287306  1  0  0  0  0
285287  1  0  0  0  0
270288  1  0  0  0  0
288289  2  0  0  0  0
267289  1  0  0  0  0
273292  1  0  0  0  0
276293  1  0  0  0  0
276295  1  0  0  0  0
277296  1  0  0  0  0
280298  1  0  0  0  0
281299  1  0  0  0  0
287304  1  0  0  0  0
287305  1  0  0  0  0
288307  1  0  0  0  0
289308  1  0  0  0  0
309310  2  0  0  0  0
309311  1  0  0  0  0
311333  2  0  0  0  0
312313  2  0  0  0  0
311312  1  0  0  0  0
313314  1  0  0  0  0
314315  1  0  0  0  0
314332  2  0  0  0  0
315316  1  0  0  0  0
315322  2  0  0  0  0
316317  2  0  0  0  0
317336  1  0  0  0  0
317318  1  0  0  0  0
318319  1  0  0  0  0
319320  1  0  0  0  0
320337  1  0  0  0  0
320339  1  0  0  0  0
318321  2  0  0  0  0
321340  1  0  0  0  0
321322  1  0  0  0  0
323324  2  0  0  0  0
316323  1  0  0  0  0
324342  1  0  0  0  0
325343  1  0  0  0  0
324325  1  0  0  0  0
325326  2  0  0  0  0
326327  1  0  0  0  0
327328  2  0  0  0  0
323328  1  0  0  0  0
329346  1  0  0  0  0
329331  1  0  0  0  0
327329  1  0  0  0  0
329330  1  0  0  0  0
331348  1  0  0  0  0
331349  1  0  0  0  0
332351  1  0  0  0  0
333352  1  0  0  0  0
332333  1  0  0  0  0
312334  1  0  0  0  0
313335  1  0  0  0  0
320338  1  0  0  0  0
322341  1  0  0  0  0
326344  1  0  0  0  0
328345  1  0  0  0  0
330347  1  0  0  0  0
331350  1  0  0  0  0
353354  1  0  0  0  0
353356  1  0  0  0  0
353355  1  0  0  0  0
353357  1  0  0  0  0
358367  1  0  0  0  0
358359  1  0  0  0  0
359361  1  0  0  0  0
359362  1  0  0  0  0
360368  1  0  0  0  0
359360  1  0  0  0  0
360369  1  0  0  0  0
361371  1  0  0  0  0
361372  1  0  0  0  0
362363  1  0  0  0  0
363364  2  0  0  0  0
330363  1  0  0  0  0
358365  1  0  0  0  0
358366  1  0  0  0  0
360370  1  0  0  0  0
361373  1  0  0  0  0
M  END
> <atom.dprop.PartialCharge>
0.648000 -0.553820 -0.145040 -0.070220 -0.130350 -0.001160 -0.074770 0.009290 -0.146820 0.125910 -0.324930 0.111630 -0.203210 -0.081790 -0.046420 -0.106140 -0.131470 -0.116910 -0.113790 -0.090780 0.149630 -0.566100 -0.105370 -0.130350 -0.070220 0.157310 0.146000 0.155360 0.045760 0.045760 0.045760 0.140070 0.140810 0.136810 0.136510 0.129390 0.145710 0.088160 0.304490 0.044360 0.044360 0.044360 0.146000 0.157310 0.677440 -0.603770 -0.138090 -0.091010 -0.125370 -0.008350 -0.072790 0.007310 -0.198340 0.125230 -0.329230 0.110940 -0.156490 -0.083330 -0.043580 -0.109910 -0.127110 -0.106870 -0.101930 -0.112580 0.151230 -0.569710 -0.110590 -0.125370 -0.091010 0.146190 0.138170 0.145440 0.046310 0.046310 0.046310 0.154660 0.149710 0.135700 0.144600 0.142310 0.130770 0.089850 0.310450 0.044240 0.044240 0.044240 0.138170 0.146190 0.675230 -0.606500 -0.138960 -0.095140 -0.129370 -0.008440 -0.080350 0.008640 -0.147380 0.129210 -0.325550 0.111700 -0.201130 -0.082910 -0.042200 -0.106260 -0.130570 -0.110820 -0.101940 -0.109970 0.152200 -0.570370 -0.113130 -0.129370 -0.095140 0.147520 0.141380 0.155460 0.047090 0.047090 0.047090 0.143420 0.142350 0.138970 0.136960 0.144010 0.134240 0.085840 0.313570 0.043500 0.043500 0.043500 0.141380 0.147520 0.677400 -0.609470 -0.143790 -0.094690 -0.126070 -0.003760 -0.080100 0.006990 -0.145510 0.128450 -0.324890 0.111820 -0.200490 -0.079930 -0.042750 -0.108590 -0.132900 -0.108460 -0.097510 -0.108650 0.152050 -0.569810 -0.113160 -0.126070 -0.094690 0.144430 0.142290 0.157590 0.046120 0.046120 0.046120 0.143100 0.142020 0.136450 0.134360 0.139900 0.136300 0.086600 0.310230 0.045430 0.045430 0.045430 0.142290 0.144430 0.674620 -0.609780 -0.142340 -0.093840 -0.126870 -0.008150 -0.076240 0.004100 -0.141860 0.124680 -0.322890 0.112380 -0.204290 -0.085290 -0.034940 -0.102910 -0.129860 -0.107900 -0.104780 -0.106110 0.157810 -0.570650 -0.108840 -0.126870 -0.093840 0.147490 0.143390 0.169570 0.044060 0.044060 0.044060 0.143900 0.139120 0.137660 0.134720 0.136890 0.133250 0.076870 0.318500 0.043440 0.043440 0.043440 0.143390 0.147490 0.675590 -0.617230 -0.139710 -0.091640 -0.124880 -0.010920 -0.075940 0.006450 -0.146570 0.133440 -0.321310 0.112620 -0.203020 -0.084670 -0.037830 -0.109090 -0.129020 -0.113460 -0.107880 -0.104410 0.146460 -0.561540 -0.102720 -0.124880 -0.091640 0.144820 0.141500 0.154340 0.046020 0.046020 0.046020 0.140330 0.138660 0.136890 0.133490 0.134210 0.130560 0.089200 0.299580 0.045300 0.045300 0.045300 0.141500 0.144820 0.675440 -0.594360 -0.138420 -0.094950 -0.126080 -0.002760 -0.076150 0.006480 -0.142000 0.131140 -0.328320 0.111820 -0.195120 -0.077250 -0.040060 -0.105790 -0.133350 -0.110000 -0.102570 -0.111060 0.153240 -0.567640 -0.113250 -0.126080 -0.094950 0.140100 0.141700 0.155060 0.045040 0.045040 0.045040 0.139870 0.140650 0.144700 0.137340 0.138270 0.134270 0.083320 0.309850 0.045680 0.045680 0.045680 0.141700 0.140100 0.673890 -0.609030 -0.136770 -0.093520 -0.128540 -0.008250 -0.077300 0.004340 -0.145810 0.128650 -0.324480 0.112610 -0.201020 -0.082780 -0.040460 -0.103630 -0.130000 -0.106940 -0.106790 -0.108120 0.164830 -0.561500 -0.110770 -0.128540 -0.093520 0.146980 0.140440 0.156990 0.046120 0.046120 0.046120 0.142570 0.142990 0.139420 0.137260 0.140220 0.136880 0.083960 0.333880 0.045080 0.045080 0.045080 0.140440 0.146980 0.125200 -0.429570 0.049830 0.049830 0.049830 -0.114220 0.187810 -0.114220 -0.114220 -0.448520 0.751180 -0.607390 0.051390 0.051390 0.051390 0.051390 0.051390 0.051390 0.051390 0.051390 0.051390

$$$$
