mop_trimer.pdb
 OpenBabel09162417043D

153161  0  0  1  0  0  0  0  0999 V2000
   -3.2720   -5.0560    0.0900 C   0  0  0  0  0  0  0  0  0  0  0  0
   -4.2140   -5.3990   -0.6770 O   0  0  0  0  0  0  0  0  0  0  0  0
   -2.9150   -3.6100    0.0830 C   0  0  0  0  0  0  0  0  0  0  0  0
   -1.8410   -3.0520    0.9450 C   0  0  0  0  0  0  0  0  0  0  0  0
   -1.5210   -1.6280    0.9860 C   0  0  0  0  0  0  0  0  0  0  0  0
   -2.2190   -0.6530    0.1310 C   0  0  0  0  0  0  0  0  0  0  0  0
   -1.8980    0.7910    0.1170 C   0  0  0  0  0  0  0  0  0  0  0  0
   -0.5200    1.3300   -0.1630 C   0  0  0  0  0  0  0  0  0  0  0  0
   -0.2980    2.7870   -0.0480 C   0  0  0  0  0  0  0  0  0  0  0  0
   -1.3910    3.7080    0.1940 C   0  0  0  0  0  0  0  0  0  0  0  0
   -1.0370    5.0380    0.1990 O   0  0  0  0  0  0  0  0  0  0  0  0
   -2.0460    5.9810    0.5140 C   0  0  0  0  0  0  0  0  0  0  0  0
   -2.7370    3.2090    0.3900 C   0  0  0  0  0  0  0  0  0  0  0  0
   -2.9800    1.7760    0.3480 C   0  0  0  0  0  0  0  0  0  0  0  0
    0.6210    0.4770   -0.5380 C   0  0  0  0  0  0  0  0  0  0  0  0
    0.5780   -0.4180   -1.7080 C   0  0  0  0  0  0  0  0  0  0  0  0
    1.6910   -1.2970   -2.0330 C   0  0  0  0  0  0  0  0  0  0  0  0
    2.8940   -1.2800   -1.2170 C   0  0  0  0  0  0  0  0  0  0  0  0
    2.9730   -0.4110   -0.0400 C   0  0  0  0  0  0  0  0  0  0  0  0
    1.8410    0.4490    0.2890 C   0  0  0  0  0  0  0  0  0  0  0  0
    4.1010   -0.5500    0.9730 C   0  0  1  0  0  0  0  0  0  0  0  0
    4.2420   -1.9020    1.5340 N   0  0  0  0  0  0  0  0  0  0  0  0
    5.4230   -0.1650    0.2880 C   0  0  0  0  0  0  0  0  0  0  0  0
   -3.2410   -1.2020   -0.7710 C   0  0  0  0  0  0  0  0  0  0  0  0
   -3.5690   -2.6130   -0.7970 C   0  0  0  0  0  0  0  0  0  0  0  0
   -1.1820   -3.7330    1.4750 H   0  0  0  0  0  0  0  0  0  0  0  0
   -0.6550   -1.3250    1.5680 H   0  0  0  0  0  0  0  0  0  0  0  0
    0.7010    3.1710   -0.1360 H   0  0  0  0  0  0  0  0  0  0  0  0
   -1.5770    6.9700    0.5240 H   0  0  0  0  0  0  0  0  0  0  0  0
   -2.4660    5.7990    1.5080 H   0  0  0  0  0  0  0  0  0  0  0  0
   -2.8260    5.9860   -0.2520 H   0  0  0  0  0  0  0  0  0  0  0  0
   -3.5650    3.8560    0.6420 H   0  0  0  0  0  0  0  0  0  0  0  0
   -3.9740    1.4040    0.5630 H   0  0  0  0  0  0  0  0  0  0  0  0
   -0.3790   -0.6210   -2.1730 H   0  0  0  0  0  0  0  0  0  0  0  0
    1.4690   -2.2100   -2.5740 H   0  0  0  0  0  0  0  0  0  0  0  0
    3.5130   -2.1710   -1.2280 H   0  0  0  0  0  0  0  0  0  0  0  0
    1.8040    0.8850    1.2820 H   0  0  0  0  0  0  0  0  0  0  0  0
    3.9620    0.1740    1.7870 H   0  0  0  0  0  0  0  0  0  0  0  0
    4.2190   -2.5760    0.7780 H   0  0  0  0  0  0  0  0  0  0  0  0
    5.7070   -0.8820   -0.4920 H   0  0  0  0  0  0  0  0  0  0  0  0
    6.2430   -0.1190    1.0130 H   0  0  0  0  0  0  0  0  0  0  0  0
    5.3460    0.8220   -0.1860 H   0  0  0  0  0  0  0  0  0  0  0  0
   -3.6940   -0.5600   -1.5130 H   0  0  0  0  0  0  0  0  0  0  0  0
   -4.2700   -2.9830   -1.5330 H   0  0  0  0  0  0  0  0  0  0  0  0
    3.1590   -2.2890    2.3710 C   0  0  0  0  0  0  0  0  0  0  0  0
    2.5740   -3.3260    1.9860 O   0  0  0  0  0  0  0  0  0  0  0  0
    3.0850   -1.9600    3.8000 C   0  0  0  0  0  0  0  0  0  0  0  0
    4.2250   -1.3740    4.5300 C   0  0  0  0  0  0  0  0  0  0  0  0
    4.2130   -1.1800    5.9700 C   0  0  0  0  0  0  0  0  0  0  0  0
    3.0230   -1.4730    6.7830 C   0  0  0  0  0  0  0  0  0  0  0  0
    2.9870   -1.2350    8.2420 C   0  0  0  0  0  0  0  0  0  0  0  0
    3.3050    0.1040    8.8540 C   0  0  0  0  0  0  0  0  0  0  0  0
    3.3970    0.1920   10.3230 C   0  0  0  0  0  0  0  0  0  0  0  0
    3.0810   -0.9260   11.1790 C   0  0  0  0  0  0  0  0  0  0  0  0
    3.1440   -0.6630   12.5250 O   0  0  0  0  0  0  0  0  0  0  0  0
    2.8950   -1.7370   13.4170 C   0  0  0  0  0  0  0  0  0  0  0  0
    2.6900   -2.1960   10.6070 C   0  0  0  0  0  0  0  0  0  0  0  0
    2.6570   -2.3470    9.1610 C   0  0  0  0  0  0  0  0  0  0  0  0
    3.5360    1.3220    8.0590 C   0  0  0  0  0  0  0  0  0  0  0  0
    2.5480    1.8230    7.0860 C   0  0  0  0  0  0  0  0  0  0  0  0
    2.8180    2.9910    6.2630 C   0  0  0  0  0  0  0  0  0  0  0  0
    4.0800    3.7030    6.3990 C   0  0  0  0  0  0  0  0  0  0  0  0
    5.0940    3.2250    7.3410 C   0  0  0  0  0  0  0  0  0  0  0  0
    4.8200    2.0410    8.1470 C   0  0  0  0  0  0  0  0  0  0  0  0
    6.5060    3.7810    7.3280 C   0  0  1  0  0  0  0  0  0  0  0  0
    7.1890    3.6890    6.0270 N   0  0  0  0  0  0  0  0  0  0  0  0
    6.4520    5.2650    7.7420 C   0  0  0  0  0  0  0  0  0  0  0  0
    1.8480   -1.9810    6.0560 C   0  0  0  0  0  0  0  0  0  0  0  0
    1.8700   -2.1870    4.6170 C   0  0  0  0  0  0  0  0  0  0  0  0
    5.0930   -1.0470    3.9670 H   0  0  0  0  0  0  0  0  0  0  0  0
    5.0810   -0.7060    6.4150 H   0  0  0  0  0  0  0  0  0  0  0  0
    3.6980    1.1330   10.7670 H   0  0  0  0  0  0  0  0  0  0  0  0
    3.0220   -1.3550   14.4360 H   0  0  0  0  0  0  0  0  0  0  0  0
    3.6160   -2.5460   13.2710 H   0  0  0  0  0  0  0  0  0  0  0  0
    1.8670   -2.0940   13.3190 H   0  0  0  0  0  0  0  0  0  0  0  0
    2.4840   -3.0670   11.2080 H   0  0  0  0  0  0  0  0  0  0  0  0
    2.4830   -3.3280    8.7340 H   0  0  0  0  0  0  0  0  0  0  0  0
    1.7450    1.1640    6.7770 H   0  0  0  0  0  0  0  0  0  0  0  0
    2.3120    3.0560    5.3050 H   0  0  0  0  0  0  0  0  0  0  0  0
    4.4170    4.2740    5.5410 H   0  0  0  0  0  0  0  0  0  0  0  0
    5.6620    1.5300    8.6040 H   0  0  0  0  0  0  0  0  0  0  0  0
    7.1140    3.2820    8.0940 H   0  0  0  0  0  0  0  0  0  0  0  0
    6.5720    4.0500    5.3080 H   0  0  0  0  0  0  0  0  0  0  0  0
    5.9350    5.8830    6.9980 H   0  0  0  0  0  0  0  0  0  0  0  0
    7.4590    5.6760    7.8740 H   0  0  0  0  0  0  0  0  0  0  0  0
    5.9210    5.3860    8.6950 H   0  0  0  0  0  0  0  0  0  0  0  0
    0.9240   -2.1670    6.5860 H   0  0  0  0  0  0  0  0  0  0  0  0
    0.9910   -2.5630    4.1060 H   0  0  0  0  0  0  0  0  0  0  0  0
    7.4490    2.3510    5.6060 C   0  0  0  0  0  0  0  0  0  0  0  0
    6.9550    2.0810    4.4900 O   0  0  0  0  0  0  0  0  0  0  0  0
    8.6400    1.6000    6.0120 C   0  0  0  0  0  0  0  0  0  0  0  0
    9.7340    2.2520    6.7380 C   0  0  0  0  0  0  0  0  0  0  0  0
   10.9190    1.5340    7.1460 C   0  0  0  0  0  0  0  0  0  0  0  0
   11.2160    0.1660    6.7180 C   0  0  0  0  0  0  0  0  0  0  0  0
   12.5070   -0.4900    7.0500 C   0  0  0  0  0  0  0  0  0  0  0  0
   13.1210   -0.4490    8.4330 C   0  0  0  0  0  0  0  0  0  0  0  0
   14.4900   -0.9700    8.6050 C   0  0  0  0  0  0  0  0  0  0  0  0
   15.2220   -1.5810    7.5250 C   0  0  0  0  0  0  0  0  0  0  0  0
   16.4560   -2.0710    7.8690 O   0  0  0  0  0  0  0  0  0  0  0  0
   17.2210   -2.7050    6.8570 C   0  0  0  0  0  0  0  0  0  0  0  0
   14.6370   -1.6670    6.2050 C   0  0  0  0  0  0  0  0  0  0  0  0
   13.3070   -1.1200    5.9730 C   0  0  0  0  0  0  0  0  0  0  0  0
   12.4330    0.0970    9.6180 C   0  0  0  0  0  0  0  0  0  0  0  0
   11.0850   -0.3430   10.0190 C   0  0  0  0  0  0  0  0  0  0  0  0
   10.3700    0.3020   11.1090 C   0  0  0  0  0  0  0  0  0  0  0  0
   10.9880    1.3950   11.8420 C   0  0  0  0  0  0  0  0  0  0  0  0
   12.3360    1.8420   11.4970 C   0  0  0  0  0  0  0  0  0  0  0  0
   13.0360    1.2030   10.3870 C   0  0  0  0  0  0  0  0  0  0  0  0
   12.9850    3.0300   12.1820 C   0  0  1  0  0  0  0  0  0  0  0  0
   12.2850    4.2930   12.0280 N   0  0  0  0  0  0  0  0  0  0  0  0
   13.1200    2.7300   13.6830 C   0  0  0  0  0  0  0  0  0  0  0  0
   10.1130   -0.5230    6.0270 C   0  0  0  0  0  0  0  0  0  0  0  0
    8.8540    0.1580    5.7300 C   0  0  0  0  0  0  0  0  0  0  0  0
    9.6100    3.2840    7.0410 H   0  0  0  0  0  0  0  0  0  0  0  0
   11.4560    1.9520    7.9810 H   0  0  0  0  0  0  0  0  0  0  0  0
   14.9420   -0.9210    9.5880 H   0  0  0  0  0  0  0  0  0  0  0  0
   18.1510   -3.0570    7.3140 H   0  0  0  0  0  0  0  0  0  0  0  0
   17.4830   -1.9960    6.0660 H   0  0  0  0  0  0  0  0  0  0  0  0
   16.6960   -3.5760    6.4530 H   0  0  0  0  0  0  0  0  0  0  0  0
   15.1870   -2.0300    5.3500 H   0  0  0  0  0  0  0  0  0  0  0  0
   12.9480   -1.0300    4.9530 H   0  0  0  0  0  0  0  0  0  0  0  0
   10.5130   -0.9550    9.3290 H   0  0  0  0  0  0  0  0  0  0  0  0
    9.2880    0.2240   11.1190 H   0  0  0  0  0  0  0  0  0  0  0  0
   10.3440    2.0670   12.3980 H   0  0  0  0  0  0  0  0  0  0  0  0
   13.8860    1.7250    9.9580 H   0  0  0  0  0  0  0  0  0  0  0  0
   14.0190    3.1410   11.8170 H   0  0  0  0  0  0  0  0  0  0  0  0
   11.3120    4.2500   12.3060 H   0  0  0  0  0  0  0  0  0  0  0  0
   12.1450    2.6400   14.1770 H   0  0  0  0  0  0  0  0  0  0  0  0
   13.6780    3.5230   14.1930 H   0  0  0  0  0  0  0  0  0  0  0  0
   13.6620    1.7900   13.8450 H   0  0  0  0  0  0  0  0  0  0  0  0
   10.1910   -1.5780    5.8020 H   0  0  0  0  0  0  0  0  0  0  0  0
    8.0320   -0.3850    5.2760 H   0  0  0  0  0  0  0  0  0  0  0  0
   -3.0340   -7.0940    1.2220 C   0  0  0  0  0  0  0  0  0  0  0  0
   -2.5110   -5.7960    0.9830 O   0  0  0  0  0  0  0  0  0  0  0  0
   -4.0210   -7.0310    1.6950 H   0  0  0  0  0  0  0  0  0  0  0  0
   -2.3640   -7.6070    1.9180 H   0  0  0  0  0  0  0  0  0  0  0  0
   -3.0790   -7.6910    0.3040 H   0  0  0  0  0  0  0  0  0  0  0  0
   14.9390    5.0830    8.1910 C   0  0  0  0  0  0  0  0  0  0  0  0
   13.4590    5.1990    8.6030 C   0  0  0  0  0  0  0  0  0  0  0  0
   12.9910    6.6320    8.3170 C   0  0  0  0  0  0  0  0  0  0  0  0
   12.6970    4.2090    7.7310 C   0  0  0  0  0  0  0  0  0  0  0  0
   13.4460    4.8250    9.9970 O   0  0  0  0  0  0  0  0  0  0  0  0
   12.2820    4.8760   10.7320 C   0  0  0  0  0  0  0  0  0  0  0  0
   11.1760    5.4180   10.5360 O   0  0  0  0  0  0  0  0  0  0  0  0
   15.0840    5.3070    7.1280 H   0  0  0  0  0  0  0  0  0  0  0  0
   15.5630    5.7610    8.7810 H   0  0  0  0  0  0  0  0  0  0  0  0
   15.3140    4.0690    8.3780 H   0  0  0  0  0  0  0  0  0  0  0  0
   13.4730    7.3450    8.9910 H   0  0  0  0  0  0  0  0  0  0  0  0
   11.9090    6.7450    8.4370 H   0  0  0  0  0  0  0  0  0  0  0  0
   13.2110    6.9180    7.2820 H   0  0  0  0  0  0  0  0  0  0  0  0
   13.0890    3.2020    7.8960 H   0  0  0  0  0  0  0  0  0  0  0  0
   11.6310    4.2120    7.9710 H   0  0  0  0  0  0  0  0  0  0  0  0
   12.7970    4.4350    6.6630 H   0  0  0  0  0  0  0  0  0  0  0  0
  1134  1  0  0  0  0
  2  1  2  0  0  0  0
  3  1  1  0  0  0  0
  3  4  1  0  0  0  0
  4  5  2  0  0  0  0
  4 26  1  0  0  0  0
  5 27  1  0  0  0  0
  6  5  1  0  0  0  0
  7  6  1  0  0  0  0
  7 14  1  0  0  0  0
  8  9  1  0  0  0  0
  8  7  2  0  0  0  0
  9 10  2  0  0  0  0
 10 11  1  0  0  0  0
 10 13  1  0  0  0  0
 11 12  1  0  0  0  0
 12 29  1  0  0  0  0
 12 30  1  0  0  0  0
 13 32  1  0  0  0  0
 14 13  2  0  0  0  0
 14 33  1  0  0  0  0
 15  8  1  0  0  0  0
 15 20  1  0  0  0  0
 16 15  2  0  0  0  0
 17 16  1  0  0  0  0
 17 18  2  0  0  0  0
 18 19  1  0  0  0  0
 19 20  2  0  0  0  0
 19 21  1  0  0  0  0
 20 37  1  0  0  0  0
 21 22  1  0  0  0  0
 21 38  1  1  0  0  0
 22 45  1  0  0  0  0
 23 21  1  0  0  0  0
 23 41  1  0  0  0  0
 24  6  2  0  0  0  0
 25 24  1  0  0  0  0
 25  3  2  0  0  0  0
 28  9  1  0  0  0  0
 31 12  1  0  0  0  0
 34 16  1  0  0  0  0
 35 17  1  0  0  0  0
 36 18  1  0  0  0  0
 39 22  1  0  0  0  0
 40 23  1  0  0  0  0
 42 23  1  0  0  0  0
 43 24  1  0  0  0  0
 44 25  1  0  0  0  0
 45 47  1  0  0  0  0
 46 45  2  0  0  0  0
 47 48  2  0  0  0  0
 47 69  1  0  0  0  0
 48 49  1  0  0  0  0
 49 71  1  0  0  0  0
 49 50  2  0  0  0  0
 50 51  1  0  0  0  0
 51 52  2  0  0  0  0
 51 58  1  0  0  0  0
 52 53  1  0  0  0  0
 53 72  1  0  0  0  0
 53 54  2  0  0  0  0
 54 55  1  0  0  0  0
 55 56  1  0  0  0  0
 56 73  1  0  0  0  0
 57 54  1  0  0  0  0
 57 76  1  0  0  0  0
 58 57  2  0  0  0  0
 59 64  1  0  0  0  0
 59 52  1  0  0  0  0
 60 59  2  0  0  0  0
 61 62  2  0  0  0  0
 61 60  1  0  0  0  0
 62 63  1  0  0  0  0
 63 64  2  0  0  0  0
 64 81  1  0  0  0  0
 65 63  1  0  0  0  0
 65 67  1  0  0  0  0
 65 82  1  1  0  0  0
 66 65  1  0  0  0  0
 67 85  1  0  0  0  0
 67 86  1  0  0  0  0
 68 87  1  0  0  0  0
 68 50  1  0  0  0  0
 69 68  2  0  0  0  0
 70 48  1  0  0  0  0
 74 56  1  0  0  0  0
 75 56  1  0  0  0  0
 77 58  1  0  0  0  0
 78 60  1  0  0  0  0
 79 61  1  0  0  0  0
 80 62  1  0  0  0  0
 83 66  1  0  0  0  0
 84 67  1  0  0  0  0
 88 69  1  0  0  0  0
 89 91  1  0  0  0  0
 89 66  1  0  0  0  0
 90 89  2  0  0  0  0
 91 92  1  0  0  0  0
 92114  1  0  0  0  0
 92 93  2  0  0  0  0
 93115  1  0  0  0  0
 94 95  1  0  0  0  0
 94 93  1  0  0  0  0
 95 96  1  0  0  0  0
 96 97  2  0  0  0  0
 96103  1  0  0  0  0
 97116  1  0  0  0  0
 98 99  1  0  0  0  0
 98 97  1  0  0  0  0
100117  1  0  0  0  0
100 99  1  0  0  0  0
101 98  2  0  0  0  0
102101  1  0  0  0  0
102 95  2  0  0  0  0
103104  2  0  0  0  0
103108  1  0  0  0  0
104105  1  0  0  0  0
105123  1  0  0  0  0
105106  2  0  0  0  0
106124  1  0  0  0  0
107106  1  0  0  0  0
107109  1  0  0  0  0
108107  2  0  0  0  0
109126  1  6  0  0  0
109111  1  0  0  0  0
110109  1  0  0  0  0
110127  1  0  0  0  0
111130  1  0  0  0  0
111128  1  0  0  0  0
111129  1  0  0  0  0
112 94  2  0  0  0  0
113 91  2  0  0  0  0
113112  1  0  0  0  0
118100  1  0  0  0  0
119100  1  0  0  0  0
120101  1  0  0  0  0
121102  1  0  0  0  0
122104  1  0  0  0  0
125108  1  0  0  0  0
131112  1  0  0  0  0
132113  1  0  0  0  0
133135  1  0  0  0  0
133136  1  0  0  0  0
134133  1  0  0  0  0
137133  1  0  0  0  0
138147  1  0  0  0  0
138139  1  0  0  0  0
138146  1  0  0  0  0
139142  1  0  0  0  0
140149  1  0  0  0  0
140139  1  0  0  0  0
140148  1  0  0  0  0
141151  1  0  0  0  0
141152  1  0  0  0  0
141139  1  0  0  0  0
142143  1  0  0  0  0
143110  1  0  0  0  0
144143  2  0  0  0  0
145138  1  0  0  0  0
150140  1  0  0  0  0
153141  1  0  0  0  0
M  END
