mop_trimer.pdb
 OpenBabel09252422053D

153161  0  0  1  0  0  0  0  0999 V2000
   -3.3270   -5.0510    0.1330 C   0  0  0  0  0  0  0  0  0  0  0  0
   -4.2770   -5.4020   -0.6260 O   0  0  0  0  0  0  0  0  0  0  0  0
   -2.9560   -3.6110    0.0920 C   0  0  0  0  0  0  0  0  0  0  0  0
   -1.8520   -3.0630    0.9200 C   0  0  0  0  0  0  0  0  0  0  0  0
   -1.5120   -1.6450    0.9460 C   0  0  0  0  0  0  0  0  0  0  0  0
   -2.2140   -0.6620    0.1030 C   0  0  0  0  0  0  0  0  0  0  0  0
   -1.8870    0.7810    0.0980 C   0  0  0  0  0  0  0  0  0  0  0  0
   -0.5060    1.3210   -0.1730 C   0  0  0  0  0  0  0  0  0  0  0  0
   -0.2970    2.7800   -0.0580 C   0  0  0  0  0  0  0  0  0  0  0  0
   -1.3830    3.6960    0.2010 C   0  0  0  0  0  0  0  0  0  0  0  0
   -1.0440    5.0260    0.1960 O   0  0  0  0  0  0  0  0  0  0  0  0
   -2.0470    5.9680    0.5370 C   0  0  0  0  0  0  0  0  0  0  0  0
   -2.7250    3.1950    0.4020 C   0  0  0  0  0  0  0  0  0  0  0  0
   -2.9660    1.7640    0.3520 C   0  0  0  0  0  0  0  0  0  0  0  0
    0.6390    0.4700   -0.5470 C   0  0  0  0  0  0  0  0  0  0  0  0
    0.6000   -0.4190   -1.7220 C   0  0  0  0  0  0  0  0  0  0  0  0
    1.7170   -1.2910   -2.0520 C   0  0  0  0  0  0  0  0  0  0  0  0
    2.9150   -1.2870   -1.2260 C   0  0  0  0  0  0  0  0  0  0  0  0
    2.9810   -0.4470   -0.0280 C   0  0  0  0  0  0  0  0  0  0  0  0
    1.8500    0.4210    0.2940 C   0  0  0  0  0  0  0  0  0  0  0  0
    4.1050   -0.6000    0.9900 C   0  0  1  0  0  0  0  0  0  0  0  0
    4.2600   -1.9570    1.5250 N   0  0  0  0  0  0  0  0  0  0  0  0
    5.4360   -0.2000    0.3340 C   0  0  0  0  0  0  0  0  0  0  0  0
   -3.2560   -1.2070   -0.7810 C   0  0  0  0  0  0  0  0  0  0  0  0
   -3.6000   -2.6150   -0.7980 C   0  0  0  0  0  0  0  0  0  0  0  0
   -1.1850   -3.7530    1.4280 H   0  0  0  0  0  0  0  0  0  0  0  0
   -0.6320   -1.3520    1.5130 H   0  0  0  0  0  0  0  0  0  0  0  0
    0.7080    3.1710   -0.1730 H   0  0  0  0  0  0  0  0  0  0  0  0
   -1.5870    6.9610    0.5430 H   0  0  0  0  0  0  0  0  0  0  0  0
   -2.4470    5.7790    1.5380 H   0  0  0  0  0  0  0  0  0  0  0  0
   -2.8460    5.9750   -0.2110 H   0  0  0  0  0  0  0  0  0  0  0  0
   -3.5500    3.8370    0.6690 H   0  0  0  0  0  0  0  0  0  0  0  0
   -3.9540    1.3870    0.5930 H   0  0  0  0  0  0  0  0  0  0  0  0
   -0.3610   -0.6400   -2.1720 H   0  0  0  0  0  0  0  0  0  0  0  0
    1.4960   -2.2000   -2.6030 H   0  0  0  0  0  0  0  0  0  0  0  0
    3.5470   -2.1670   -1.2630 H   0  0  0  0  0  0  0  0  0  0  0  0
    1.8040    0.8480    1.2910 H   0  0  0  0  0  0  0  0  0  0  0  0
    3.9520    0.1060    1.8170 H   0  0  0  0  0  0  0  0  0  0  0  0
    4.2340   -2.6260    0.7640 H   0  0  0  0  0  0  0  0  0  0  0  0
    5.7360   -0.9020   -0.4540 H   0  0  0  0  0  0  0  0  0  0  0  0
    6.2430   -0.1680    1.0740 H   0  0  0  0  0  0  0  0  0  0  0  0
    5.3670    0.7960   -0.1210 H   0  0  0  0  0  0  0  0  0  0  0  0
   -3.7070   -0.5590   -1.5280 H   0  0  0  0  0  0  0  0  0  0  0  0
   -4.2910   -2.9870   -1.5420 H   0  0  0  0  0  0  0  0  0  0  0  0
    3.2080   -2.3750    2.3870 C   0  0  0  0  0  0  0  0  0  0  0  0
    2.6740   -3.4510    2.0440 O   0  0  0  0  0  0  0  0  0  0  0  0
    3.1160   -1.9890    3.8010 C   0  0  0  0  0  0  0  0  0  0  0  0
    4.2390   -1.3630    4.5250 C   0  0  0  0  0  0  0  0  0  0  0  0
    4.2150   -1.1460    5.9630 C   0  0  0  0  0  0  0  0  0  0  0  0
    3.0240   -1.4460    6.7750 C   0  0  0  0  0  0  0  0  0  0  0  0
    2.9840   -1.2170    8.2380 C   0  0  0  0  0  0  0  0  0  0  0  0
    3.2860    0.1210    8.8620 C   0  0  0  0  0  0  0  0  0  0  0  0
    3.3670    0.1980   10.3340 C   0  0  0  0  0  0  0  0  0  0  0  0
    3.0620   -0.9300   11.1820 C   0  0  0  0  0  0  0  0  0  0  0  0
    3.1460   -0.6880   12.5300 O   0  0  0  0  0  0  0  0  0  0  0  0
    2.8780   -1.7600   13.4170 C   0  0  0  0  0  0  0  0  0  0  0  0
    2.7040   -2.2050   10.5960 C   0  0  0  0  0  0  0  0  0  0  0  0
    2.6630   -2.3400    9.1490 C   0  0  0  0  0  0  0  0  0  0  0  0
    3.5210    1.3420    8.0710 C   0  0  0  0  0  0  0  0  0  0  0  0
    2.5290    1.8480    7.1050 C   0  0  0  0  0  0  0  0  0  0  0  0
    2.8070    3.0050    6.2670 C   0  0  0  0  0  0  0  0  0  0  0  0
    4.0830    3.6960    6.3780 C   0  0  0  0  0  0  0  0  0  0  0  0
    5.1070    3.2060    7.3010 C   0  0  0  0  0  0  0  0  0  0  0  0
    4.8190    2.0390    8.1320 C   0  0  0  0  0  0  0  0  0  0  0  0
    6.5260    3.7540    7.2730 C   0  0  1  0  0  0  0  0  0  0  0  0
    7.1850    3.6960    5.9630 N   0  0  0  0  0  0  0  0  0  0  0  0
    6.5010    5.2260    7.7180 C   0  0  0  0  0  0  0  0  0  0  0  0
    1.8540   -1.9580    6.0420 C   0  0  0  0  0  0  0  0  0  0  0  0
    1.8890   -2.1870    4.6060 C   0  0  0  0  0  0  0  0  0  0  0  0
    5.1090   -1.0420    3.9620 H   0  0  0  0  0  0  0  0  0  0  0  0
    5.0840   -0.6770    6.4110 H   0  0  0  0  0  0  0  0  0  0  0  0
    3.6640    1.1370   10.7870 H   0  0  0  0  0  0  0  0  0  0  0  0
    2.9970   -1.3870   14.4390 H   0  0  0  0  0  0  0  0  0  0  0  0
    3.5920   -2.5780   13.2760 H   0  0  0  0  0  0  0  0  0  0  0  0
    1.8470   -2.1120   13.3080 H   0  0  0  0  0  0  0  0  0  0  0  0
    2.5680   -3.0970   11.1880 H   0  0  0  0  0  0  0  0  0  0  0  0
    2.5110   -3.3220    8.7130 H   0  0  0  0  0  0  0  0  0  0  0  0
    1.7250    1.1880    6.7970 H   0  0  0  0  0  0  0  0  0  0  0  0
    2.2900    3.0660    5.3150 H   0  0  0  0  0  0  0  0  0  0  0  0
    4.4070    4.2730    5.5190 H   0  0  0  0  0  0  0  0  0  0  0  0
    5.6550    1.5230    8.5940 H   0  0  0  0  0  0  0  0  0  0  0  0
    7.1380    3.2280    8.0180 H   0  0  0  0  0  0  0  0  0  0  0  0
    6.5680    4.0710    5.2520 H   0  0  0  0  0  0  0  0  0  0  0  0
    5.9780    5.8660    6.9970 H   0  0  0  0  0  0  0  0  0  0  0  0
    7.5180    5.6190    7.8320 H   0  0  0  0  0  0  0  0  0  0  0  0
    5.9960    5.3390    8.6860 H   0  0  0  0  0  0  0  0  0  0  0  0
    0.9270   -2.1410    6.5670 H   0  0  0  0  0  0  0  0  0  0  0  0
    1.0120   -2.5590    4.0900 H   0  0  0  0  0  0  0  0  0  0  0  0
    7.4910    2.3840    5.5040 C   0  0  0  0  0  0  0  0  0  0  0  0
    7.0840    2.1630    4.3410 O   0  0  0  0  0  0  0  0  0  0  0  0
    8.6500    1.6120    5.9680 C   0  0  0  0  0  0  0  0  0  0  0  0
    9.7090    2.2370    6.7690 C   0  0  0  0  0  0  0  0  0  0  0  0
   10.8850    1.5110    7.1960 C   0  0  0  0  0  0  0  0  0  0  0  0
   11.1930    0.1510    6.7430 C   0  0  0  0  0  0  0  0  0  0  0  0
   12.4860   -0.5110    7.0700 C   0  0  0  0  0  0  0  0  0  0  0  0
   13.1110   -0.4740    8.4500 C   0  0  0  0  0  0  0  0  0  0  0  0
   14.4910   -0.9760    8.6030 C   0  0  0  0  0  0  0  0  0  0  0  0
   15.2170   -1.5850    7.5150 C   0  0  0  0  0  0  0  0  0  0  0  0
   16.4790   -2.0240    7.8330 O   0  0  0  0  0  0  0  0  0  0  0  0
   17.2180   -2.7060    6.8340 C   0  0  0  0  0  0  0  0  0  0  0  0
   14.6200   -1.6730    6.2010 C   0  0  0  0  0  0  0  0  0  0  0  0
   13.2800   -1.1420    5.9860 C   0  0  0  0  0  0  0  0  0  0  0  0
   12.4300    0.0740    9.6410 C   0  0  0  0  0  0  0  0  0  0  0  0
   11.0800   -0.3600   10.0460 C   0  0  0  0  0  0  0  0  0  0  0  0
   10.3620    0.3040   11.1240 C   0  0  0  0  0  0  0  0  0  0  0  0
   10.9770    1.4110   11.8420 C   0  0  0  0  0  0  0  0  0  0  0  0
   12.3300    1.8470   11.5000 C   0  0  0  0  0  0  0  0  0  0  0  0
   13.0250    1.2000   10.3900 C   0  0  0  0  0  0  0  0  0  0  0  0
   12.9890    3.0310   12.1820 C   0  0  1  0  0  0  0  0  0  0  0  0
   12.2980    4.3010   12.0370 N   0  0  0  0  0  0  0  0  0  0  0  0
   13.1200    2.7520   13.6880 C   0  0  0  0  0  0  0  0  0  0  0  0
   10.1090   -0.5190    6.0010 C   0  0  0  0  0  0  0  0  0  0  0  0
    8.8690    0.1770    5.6620 C   0  0  0  0  0  0  0  0  0  0  0  0
    9.5970    3.2760    7.0550 H   0  0  0  0  0  0  0  0  0  0  0  0
   11.4490    1.9490    8.0030 H   0  0  0  0  0  0  0  0  0  0  0  0
   14.9680   -0.8930    9.5720 H   0  0  0  0  0  0  0  0  0  0  0  0
   18.1560   -3.0450    7.2850 H   0  0  0  0  0  0  0  0  0  0  0  0
   17.4690   -2.0350    6.0070 H   0  0  0  0  0  0  0  0  0  0  0  0
   16.6810   -3.5910    6.4770 H   0  0  0  0  0  0  0  0  0  0  0  0
   15.1760   -1.9980    5.3350 H   0  0  0  0  0  0  0  0  0  0  0  0
   12.9160   -1.0450    4.9680 H   0  0  0  0  0  0  0  0  0  0  0  0
   10.5000   -0.9570    9.3490 H   0  0  0  0  0  0  0  0  0  0  0  0
    9.2780    0.2460   11.1120 H   0  0  0  0  0  0  0  0  0  0  0  0
   10.3260    2.1060   12.3600 H   0  0  0  0  0  0  0  0  0  0  0  0
   13.8510    1.7380    9.9340 H   0  0  0  0  0  0  0  0  0  0  0  0
   14.0200    3.1350   11.8170 H   0  0  0  0  0  0  0  0  0  0  0  0
   11.3250    4.2760   12.3180 H   0  0  0  0  0  0  0  0  0  0  0  0
   12.1440    2.6700   14.1810 H   0  0  0  0  0  0  0  0  0  0  0  0
   13.6740    3.5560   14.1860 H   0  0  0  0  0  0  0  0  0  0  0  0
   13.6650    1.8180   13.8670 H   0  0  0  0  0  0  0  0  0  0  0  0
   10.1920   -1.5670    5.7480 H   0  0  0  0  0  0  0  0  0  0  0  0
    8.0730   -0.3450    5.1420 H   0  0  0  0  0  0  0  0  0  0  0  0
   -3.0390   -7.1030    1.2400 C   0  0  0  0  0  0  0  0  0  0  0  0
   -2.5770   -5.7740    1.0440 O   0  0  0  0  0  0  0  0  0  0  0  0
   -4.0520   -7.1060    1.6560 H   0  0  0  0  0  0  0  0  0  0  0  0
   -2.3810   -7.5820    1.9710 H   0  0  0  0  0  0  0  0  0  0  0  0
   -2.9900   -7.6880    0.3160 H   0  0  0  0  0  0  0  0  0  0  0  0
   14.9890    5.1520    8.2450 C   0  0  0  0  0  0  0  0  0  0  0  0
   13.5030    5.2470    8.6420 C   0  0  0  0  0  0  0  0  0  0  0  0
   13.0320    6.6800    8.3560 C   0  0  0  0  0  0  0  0  0  0  0  0
   12.7440    4.2500    7.7700 C   0  0  0  0  0  0  0  0  0  0  0  0
   13.4860    4.8620   10.0330 O   0  0  0  0  0  0  0  0  0  0  0  0
   12.3230    4.9290   10.7670 C   0  0  0  0  0  0  0  0  0  0  0  0
   11.2500    5.5460   10.5990 O   0  0  0  0  0  0  0  0  0  0  0  0
   15.1420    5.3800    7.1840 H   0  0  0  0  0  0  0  0  0  0  0  0
   15.5940    5.8410    8.8410 H   0  0  0  0  0  0  0  0  0  0  0  0
   15.3790    4.1450    8.4380 H   0  0  0  0  0  0  0  0  0  0  0  0
   13.4830    7.3910    9.0550 H   0  0  0  0  0  0  0  0  0  0  0  0
   11.9460    6.7810    8.4350 H   0  0  0  0  0  0  0  0  0  0  0  0
   13.2900    6.9820    7.3330 H   0  0  0  0  0  0  0  0  0  0  0  0
   13.1420    3.2420    7.9230 H   0  0  0  0  0  0  0  0  0  0  0  0
   11.6810    4.2360    8.0220 H   0  0  0  0  0  0  0  0  0  0  0  0
   12.8320    4.4860    6.7040 H   0  0  0  0  0  0  0  0  0  0  0  0
  1134  1  0  0  0  0
  2  1  2  0  0  0  0
  3  1  1  0  0  0  0
  3  4  1  0  0  0  0
  4  5  2  0  0  0  0
  4 26  1  0  0  0  0
  5 27  1  0  0  0  0
  6  5  1  0  0  0  0
  7  6  1  0  0  0  0
  7 14  1  0  0  0  0
  8  9  1  0  0  0  0
  8  7  2  0  0  0  0
  9 10  2  0  0  0  0
 10 13  1  0  0  0  0
 11 10  1  0  0  0  0
 11 12  1  0  0  0  0
 12 29  1  0  0  0  0
 12 30  1  0  0  0  0
 13 32  1  0  0  0  0
 14 13  2  0  0  0  0
 14 33  1  0  0  0  0
 15  8  1  0  0  0  0
 15 20  1  0  0  0  0
 16 15  2  0  0  0  0
 17 16  1  0  0  0  0
 17 18  2  0  0  0  0
 18 19  1  0  0  0  0
 19 20  2  0  0  0  0
 19 21  1  0  0  0  0
 20 37  1  0  0  0  0
 21 22  1  0  0  0  0
 21 38  1  1  0  0  0
 22 45  1  0  0  0  0
 23 21  1  0  0  0  0
 23 41  1  0  0  0  0
 24  6  2  0  0  0  0
 25 24  1  0  0  0  0
 25  3  2  0  0  0  0
 28  9  1  0  0  0  0
 31 12  1  0  0  0  0
 34 16  1  0  0  0  0
 35 17  1  0  0  0  0
 36 18  1  0  0  0  0
 39 22  1  0  0  0  0
 40 23  1  0  0  0  0
 42 23  1  0  0  0  0
 43 24  1  0  0  0  0
 44 25  1  0  0  0  0
 45 47  1  0  0  0  0
 46 45  2  0  0  0  0
 47 48  2  0  0  0  0
 47 69  1  0  0  0  0
 48 49  1  0  0  0  0
 49 71  1  0  0  0  0
 49 50  2  0  0  0  0
 50 51  1  0  0  0  0
 51 52  2  0  0  0  0
 51 58  1  0  0  0  0
 52 53  1  0  0  0  0
 53 72  1  0  0  0  0
 53 54  2  0  0  0  0
 54 55  1  0  0  0  0
 55 56  1  0  0  0  0
 56 73  1  0  0  0  0
 57 54  1  0  0  0  0
 57 76  1  0  0  0  0
 58 57  2  0  0  0  0
 59 64  1  0  0  0  0
 59 52  1  0  0  0  0
 60 59  2  0  0  0  0
 61 62  2  0  0  0  0
 61 60  1  0  0  0  0
 62 63  1  0  0  0  0
 63 64  2  0  0  0  0
 64 81  1  0  0  0  0
 65 63  1  0  0  0  0
 65 67  1  0  0  0  0
 65 82  1  1  0  0  0
 66 65  1  0  0  0  0
 67 85  1  0  0  0  0
 67 86  1  0  0  0  0
 68 87  1  0  0  0  0
 68 50  1  0  0  0  0
 69 68  2  0  0  0  0
 70 48  1  0  0  0  0
 74 56  1  0  0  0  0
 75 56  1  0  0  0  0
 77 58  1  0  0  0  0
 78 60  1  0  0  0  0
 79 61  1  0  0  0  0
 80 62  1  0  0  0  0
 83 66  1  0  0  0  0
 84 67  1  0  0  0  0
 88 69  1  0  0  0  0
 89 66  1  0  0  0  0
 89 91  1  0  0  0  0
 90 89  2  0  0  0  0
 91 92  1  0  0  0  0
 92114  1  0  0  0  0
 92 93  2  0  0  0  0
 93115  1  0  0  0  0
 94 95  1  0  0  0  0
 94 93  1  0  0  0  0
 95 96  1  0  0  0  0
 96 97  2  0  0  0  0
 96103  1  0  0  0  0
 97116  1  0  0  0  0
 98 99  1  0  0  0  0
 98 97  1  0  0  0  0
100117  1  0  0  0  0
100 99  1  0  0  0  0
101 98  2  0  0  0  0
102101  1  0  0  0  0
102 95  2  0  0  0  0
103104  2  0  0  0  0
103108  1  0  0  0  0
104105  1  0  0  0  0
105106  2  0  0  0  0
106124  1  0  0  0  0
107106  1  0  0  0  0
107109  1  0  0  0  0
108107  2  0  0  0  0
109126  1  6  0  0  0
109111  1  0  0  0  0
110109  1  0  0  0  0
110127  1  0  0  0  0
111130  1  0  0  0  0
111128  1  0  0  0  0
111129  1  0  0  0  0
112 94  2  0  0  0  0
113 91  2  0  0  0  0
113112  1  0  0  0  0
118100  1  0  0  0  0
119100  1  0  0  0  0
120101  1  0  0  0  0
121102  1  0  0  0  0
122104  1  0  0  0  0
123105  1  0  0  0  0
125108  1  0  0  0  0
131112  1  0  0  0  0
132113  1  0  0  0  0
133135  1  0  0  0  0
133136  1  0  0  0  0
134133  1  0  0  0  0
137133  1  0  0  0  0
138147  1  0  0  0  0
138139  1  0  0  0  0
138146  1  0  0  0  0
139142  1  0  0  0  0
140149  1  0  0  0  0
140139  1  0  0  0  0
140148  1  0  0  0  0
141151  1  0  0  0  0
141152  1  0  0  0  0
141139  1  0  0  0  0
142143  1  0  0  0  0
143110  1  0  0  0  0
144143  2  0  0  0  0
145138  1  0  0  0  0
150140  1  0  0  0  0
153141  1  0  0  0  0
M  END
