pmp_trimer.pdb
 OpenBabel11202514063D

153161  0  0  1  0  0  0  0  0999 V2000
   -0.8580    4.6400   -0.2340 C   0  0  0  0  0  0  0  0  0  0  0  0
    0.1940    3.7730   -0.6790 O   0  0  0  0  0  0  0  0  0  0  0  0
    0.1220    2.4550   -0.3250 C   0  0  0  0  0  0  0  0  0  0  0  0
    1.2470    1.7980    0.1900 C   0  0  0  0  0  0  0  0  0  0  0  0
    1.3250    0.4140    0.3270 C   0  0  0  0  0  0  0  0  0  0  0  0
    2.5600   -0.2360    0.8250 C   0  0  0  0  0  0  0  0  0  0  0  0
    3.8030   -0.0010    0.2060 C   0  0  0  0  0  0  0  0  0  0  0  0
    4.9770   -0.6240    0.6500 C   0  0  0  0  0  0  0  0  0  0  0  0
    4.9360   -1.5220    1.7190 C   0  0  0  0  0  0  0  0  0  0  0  0
    6.1970   -2.2350    2.0760 C   0  0  0  0  0  0  0  0  0  0  0  0
    7.2840   -1.9760    1.6100 O   0  0  0  0  0  0  0  0  0  0  0  0
    3.7150   -1.7470    2.3670 C   0  0  0  0  0  0  0  0  0  0  0  0
    2.5430   -1.1070    1.9230 C   0  0  0  0  0  0  0  0  0  0  0  0
    0.2120   -0.3120   -0.1020 C   0  0  0  0  0  0  0  0  0  0  0  0
   -0.9440    0.3180   -0.6290 C   0  0  0  0  0  0  0  0  0  0  0  0
   -2.0880   -0.4320   -1.1780 C   0  0  0  0  0  0  0  0  0  0  0  0
   -2.2480   -1.8030   -0.9770 C   0  0  0  0  0  0  0  0  0  0  0  0
   -3.4170   -2.4520   -1.3660 C   0  0  0  0  0  0  0  0  0  0  0  0
   -4.4870   -1.7360   -1.9170 C   0  0  0  0  0  0  0  0  0  0  0  0
   -5.8630   -2.3410   -2.0740 C   0  0  1  0  0  0  0  0  0  0  0  0
   -6.2350   -3.4610   -1.0890 C   0  0  0  0  0  0  0  0  0  0  0  0
   -6.9610   -1.3570   -2.1370 N   0  0  0  0  0  0  0  0  0  0  0  0
   -4.2480   -0.4230   -2.3150 C   0  0  0  0  0  0  0  0  0  0  0  0
   -3.0800    0.2180   -1.9370 C   0  0  0  0  0  0  0  0  0  0  0  0
   -0.9780    1.7200   -0.6640 C   0  0  0  0  0  0  0  0  0  0  0  0
   -0.3960    5.5470    0.1810 H   0  0  0  0  0  0  0  0  0  0  0  0
   -1.4680    4.9580   -1.0800 H   0  0  0  0  0  0  0  0  0  0  0  0
   -1.4650    4.2050    0.5640 H   0  0  0  0  0  0  0  0  0  0  0  0
    2.1070    2.3650    0.5080 H   0  0  0  0  0  0  0  0  0  0  0  0
    3.8690    0.6570   -0.6570 H   0  0  0  0  0  0  0  0  0  0  0  0
    5.9190   -0.4220    0.1400 H   0  0  0  0  0  0  0  0  0  0  0  0
    3.6530   -2.4200    3.2170 H   0  0  0  0  0  0  0  0  0  0  0  0
    1.6100   -1.2970    2.4510 H   0  0  0  0  0  0  0  0  0  0  0  0
    0.2810   -1.3940   -0.0570 H   0  0  0  0  0  0  0  0  0  0  0  0
   -1.4900   -2.3990   -0.4770 H   0  0  0  0  0  0  0  0  0  0  0  0
   -3.4800   -3.5190   -1.1770 H   0  0  0  0  0  0  0  0  0  0  0  0
   -5.8450   -2.7930   -3.0760 H   0  0  0  0  0  0  0  0  0  0  0  0
   -5.4010   -3.8440   -0.4950 H   0  0  0  0  0  0  0  0  0  0  0  0
   -7.0100   -3.1470   -0.3810 H   0  0  0  0  0  0  0  0  0  0  0  0
   -6.6450   -4.3130   -1.6420 H   0  0  0  0  0  0  0  0  0  0  0  0
   -7.6330   -1.5310   -2.8730 H   0  0  0  0  0  0  0  0  0  0  0  0
   -5.0010    0.1590   -2.8420 H   0  0  0  0  0  0  0  0  0  0  0  0
   -3.0020    1.2620   -2.2230 H   0  0  0  0  0  0  0  0  0  0  0  0
   -1.8370    2.2730   -1.0200 H   0  0  0  0  0  0  0  0  0  0  0  0
   -2.8080    6.1420    3.1470 C   0  0  0  0  0  0  0  0  0  0  0  0
   -2.3450    5.1340    4.0340 O   0  0  0  0  0  0  0  0  0  0  0  0
   -2.9180    3.8940    3.9430 C   0  0  0  0  0  0  0  0  0  0  0  0
   -3.7660    3.4430    2.9210 C   0  0  0  0  0  0  0  0  0  0  0  0
   -4.2970    2.1400    2.9500 C   0  0  0  0  0  0  0  0  0  0  0  0
   -5.1110    1.5480    1.8570 C   0  0  0  0  0  0  0  0  0  0  0  0
   -5.9430    2.2960    1.0110 C   0  0  0  0  0  0  0  0  0  0  0  0
   -6.6770    1.6740   -0.0180 C   0  0  0  0  0  0  0  0  0  0  0  0
   -6.6130    0.2850   -0.2260 C   0  0  0  0  0  0  0  0  0  0  0  0
   -7.3800   -0.2950   -1.3660 C   0  0  0  0  0  0  0  0  0  0  0  0
   -8.4280    0.2610   -1.7000 O   0  0  0  0  0  0  0  0  0  0  0  0
   -5.8400   -0.4700    0.6470 C   0  0  0  0  0  0  0  0  0  0  0  0
   -5.0780    0.1560    1.6310 C   0  0  0  0  0  0  0  0  0  0  0  0
   -3.9860    1.3470    4.0710 C   0  0  0  0  0  0  0  0  0  0  0  0
   -3.1070    1.7500    5.0820 C   0  0  0  0  0  0  0  0  0  0  0  0
   -2.8030    0.8240    6.1810 C   0  0  0  0  0  0  0  0  0  0  0  0
   -3.8450    0.2380    6.9190 C   0  0  0  0  0  0  0  0  0  0  0  0
   -3.5810   -0.6120    7.9920 C   0  0  0  0  0  0  0  0  0  0  0  0
   -2.2600   -0.8920    8.3750 C   0  0  0  0  0  0  0  0  0  0  0  0
   -2.0320   -1.5430    9.7350 C   0  0  1  0  0  0  0  0  0  0  0  0
   -0.8190   -2.4730    9.8120 C   0  0  0  0  0  0  0  0  0  0  0  0
   -2.0850   -0.4790   10.7530 N   0  0  0  0  0  0  0  0  0  0  0  0
   -1.2160   -0.3720    7.5950 C   0  0  0  0  0  0  0  0  0  0  0  0
   -1.4870    0.4770    6.5130 C   0  0  0  0  0  0  0  0  0  0  0  0
   -2.5670    3.0330    4.9900 C   0  0  0  0  0  0  0  0  0  0  0  0
   -3.8910    6.2790    3.2240 H   0  0  0  0  0  0  0  0  0  0  0  0
   -2.3320    7.0850    3.4370 H   0  0  0  0  0  0  0  0  0  0  0  0
   -2.5090    5.9230    2.1180 H   0  0  0  0  0  0  0  0  0  0  0  0
   -3.9900    4.0890    2.0800 H   0  0  0  0  0  0  0  0  0  0  0  0
   -6.0440    3.3720    1.1390 H   0  0  0  0  0  0  0  0  0  0  0  0
   -7.3020    2.2890   -0.6640 H   0  0  0  0  0  0  0  0  0  0  0  0
   -5.7870   -1.5430    0.5780 H   0  0  0  0  0  0  0  0  0  0  0  0
   -4.4270   -0.4870    2.2210 H   0  0  0  0  0  0  0  0  0  0  0  0
   -4.4240    0.3550    4.1640 H   0  0  0  0  0  0  0  0  0  0  0  0
   -4.8820    0.4720    6.6820 H   0  0  0  0  0  0  0  0  0  0  0  0
   -4.4170   -1.0030    8.5680 H   0  0  0  0  0  0  0  0  0  0  0  0
   -2.9070   -2.1740    9.9430 H   0  0  0  0  0  0  0  0  0  0  0  0
   -0.8900   -3.2640    9.0560 H   0  0  0  0  0  0  0  0  0  0  0  0
    0.1290   -1.9510    9.6490 H   0  0  0  0  0  0  0  0  0  0  0  0
   -0.7660   -2.9520   10.7950 H   0  0  0  0  0  0  0  0  0  0  0  0
   -2.8910    0.1070   10.6050 H   0  0  0  0  0  0  0  0  0  0  0  0
   -0.1760   -0.5470    7.8640 H   0  0  0  0  0  0  0  0  0  0  0  0
   -0.6540    0.8970    5.9510 H   0  0  0  0  0  0  0  0  0  0  0  0
   -1.8760    3.3940    5.7480 H   0  0  0  0  0  0  0  0  0  0  0  0
    0.2020    8.8100    8.0850 C   0  0  0  0  0  0  0  0  0  0  0  0
    0.6870    8.2280    6.8850 O   0  0  0  0  0  0  0  0  0  0  0  0
    0.8510    6.8710    6.8790 C   0  0  0  0  0  0  0  0  0  0  0  0
    0.3680    5.9750    7.8310 C   0  0  0  0  0  0  0  0  0  0  0  0
    0.5820    4.5960    7.6820 C   0  0  0  0  0  0  0  0  0  0  0  0
    0.0870    3.6650    8.7150 C   0  0  0  0  0  0  0  0  0  0  0  0
    0.9610    3.1520    9.6820 C   0  0  0  0  0  0  0  0  0  0  0  0
    0.5630    2.1170   10.5360 C   0  0  0  0  0  0  0  0  0  0  0  0
   -0.7240    1.5720   10.4480 C   0  0  0  0  0  0  0  0  0  0  0  0
   -0.9290    0.2170   11.0650 C   0  0  0  0  0  0  0  0  0  0  0  0
   -0.0370   -0.2970   11.7350 O   0  0  0  0  0  0  0  0  0  0  0  0
   -1.6570    2.2060    9.6190 C   0  0  0  0  0  0  0  0  0  0  0  0
   -1.2480    3.2390    8.7570 C   0  0  0  0  0  0  0  0  0  0  0  0
    1.2780    4.1280    6.5300 C   0  0  0  0  0  0  0  0  0  0  0  0
    1.7630    5.0180    5.5510 C   0  0  0  0  0  0  0  0  0  0  0  0
    2.2890    4.6370    4.2180 C   0  0  0  0  0  0  0  0  0  0  0  0
    3.6160    4.8230    3.7960 C   0  0  0  0  0  0  0  0  0  0  0  0
    3.9780    4.8460    2.4120 C   0  0  0  0  0  0  0  0  0  0  0  0
    3.0330    4.7270    1.3800 C   0  0  0  0  0  0  0  0  0  0  0  0
    3.4340    4.9060   -0.1120 C   0  0  1  0  0  0  0  0  0  0  0  0
    3.2500    3.8200   -1.1990 C   0  0  0  0  0  0  0  0  0  0  0  0
    3.1580    6.2510   -0.6860 N   0  0  0  0  0  0  0  0  0  0  0  0
    1.7470    4.4750    1.8580 C   0  0  0  0  0  0  0  0  0  0  0  0
    1.3730    4.3770    3.2130 C   0  0  0  0  0  0  0  0  0  0  0  0
    1.5410    6.3870    5.7660 C   0  0  0  0  0  0  0  0  0  0  0  0
    0.8530    8.5670    8.9300 H   0  0  0  0  0  0  0  0  0  0  0  0
    0.2160    9.8960    7.9510 H   0  0  0  0  0  0  0  0  0  0  0  0
   -0.8330    8.5110    8.2790 H   0  0  0  0  0  0  0  0  0  0  0  0
   -0.1920    6.3230    8.6940 H   0  0  0  0  0  0  0  0  0  0  0  0
    1.9830    3.5190    9.7400 H   0  0  0  0  0  0  0  0  0  0  0  0
    1.2940    1.6830   11.2160 H   0  0  0  0  0  0  0  0  0  0  0  0
   -2.6820    1.8580    9.5370 H   0  0  0  0  0  0  0  0  0  0  0  0
   -1.9790    3.6550    8.0650 H   0  0  0  0  0  0  0  0  0  0  0  0
    1.4020    3.0550    6.3890 H   0  0  0  0  0  0  0  0  0  0  0  0
    4.3900    5.0220    4.5330 H   0  0  0  0  0  0  0  0  0  0  0  0
    5.0230    5.0160    2.1620 H   0  0  0  0  0  0  0  0  0  0  0  0
    4.5280    4.9170   -0.0410 H   0  0  0  0  0  0  0  0  0  0  0  0
    2.2460    3.7760   -1.6230 H   0  0  0  0  0  0  0  0  0  0  0  0
    3.8900    4.0460   -2.0630 H   0  0  0  0  0  0  0  0  0  0  0  0
    3.5500    2.8300   -0.8690 H   0  0  0  0  0  0  0  0  0  0  0  0
    4.0190    6.5940   -1.0740 H   0  0  0  0  0  0  0  0  0  0  0  0
    0.9380    4.3510    1.1870 H   0  0  0  0  0  0  0  0  0  0  0  0
    0.3230    4.2100    3.4580 H   0  0  0  0  0  0  0  0  0  0  0  0
    1.8620    7.1010    5.0080 H   0  0  0  0  0  0  0  0  0  0  0  0
    7.0290   -4.0940    3.2560 C   0  0  0  0  0  0  0  0  0  0  0  0
    5.9180   -3.2460    2.9540 O   0  0  0  0  0  0  0  0  0  0  0  0
    7.1630   -4.8180    2.4460 H   0  0  0  0  0  0  0  0  0  0  0  0
    6.7840   -4.6460    4.1690 H   0  0  0  0  0  0  0  0  0  0  0  0
    7.9410   -3.5330    3.4310 H   0  0  0  0  0  0  0  0  0  0  0  0
    3.0230    5.1740   -4.9620 C   0  0  0  0  0  0  0  0  0  0  0  0
    2.2120    6.2510   -4.2100 C   0  0  0  0  0  0  0  0  0  0  0  0
    2.3620    7.5740   -4.9800 C   0  0  0  0  0  0  0  0  0  0  0  0
    0.7450    5.8210   -4.2060 C   0  0  0  0  0  0  0  0  0  0  0  0
    2.8560    6.3750   -2.8820 O   0  0  0  0  0  0  0  0  0  0  0  0
    2.2220    6.3970   -1.6830 C   0  0  0  0  0  0  0  0  0  0  0  0
    1.0250    6.5170   -1.5280 O   0  0  0  0  0  0  0  0  0  0  0  0
    2.6480    5.0160   -5.9820 H   0  0  0  0  0  0  0  0  0  0  0  0
    4.0820    5.4470   -5.0320 H   0  0  0  0  0  0  0  0  0  0  0  0
    2.9790    4.2150   -4.4360 H   0  0  0  0  0  0  0  0  0  0  0  0
    3.4060    7.8980   -5.0160 H   0  0  0  0  0  0  0  0  0  0  0  0
    1.7920    8.3730   -4.5000 H   0  0  0  0  0  0  0  0  0  0  0  0
    2.0040    7.4760   -6.0150 H   0  0  0  0  0  0  0  0  0  0  0  0
    0.5940    4.9240   -3.5960 H   0  0  0  0  0  0  0  0  0  0  0  0
    0.0990    6.6120   -3.8110 H   0  0  0  0  0  0  0  0  0  0  0  0
    0.3890    5.6000   -5.2220 H   0  0  0  0  0  0  0  0  0  0  0  0
  1 26  1  0  0  0  0
  1 28  1  0  0  0  0
  2  3  1  0  0  0  0
  2  1  1  0  0  0  0
  3  4  1  0  0  0  0
  4  5  2  0  0  0  0
  4 29  1  0  0  0  0
  5  6  1  0  0  0  0
  6 13  1  0  0  0  0
  7  8  1  0  0  0  0
  7  6  2  0  0  0  0
  8  9  2  0  0  0  0
  9 10  1  0  0  0  0
  9 12  1  0  0  0  0
 10134  1  0  0  0  0
 11 10  2  0  0  0  0
 12 32  1  0  0  0  0
 13 12  2  0  0  0  0
 13 33  1  0  0  0  0
 14 34  1  0  0  0  0
 14  5  1  0  0  0  0
 15 14  2  0  0  0  0
 16 17  1  0  0  0  0
 16 15  1  0  0  0  0
 17 35  1  0  0  0  0
 18 36  1  0  0  0  0
 18 17  2  0  0  0  0
 19 18  1  0  0  0  0
 20 37  1  6  0  0  0
 20 19  1  0  0  0  0
 20 21  1  0  0  0  0
 21 38  1  0  0  0  0
 21 39  1  0  0  0  0
 22 20  1  0  0  0  0
 22 54  1  0  0  0  0
 23 24  1  0  0  0  0
 23 19  2  0  0  0  0
 24 16  2  0  0  0  0
 25 15  1  0  0  0  0
 25  3  2  0  0  0  0
 27  1  1  0  0  0  0
 30  7  1  0  0  0  0
 31  8  1  0  0  0  0
 40 21  1  0  0  0  0
 41 22  1  0  0  0  0
 42 23  1  0  0  0  0
 43 24  1  0  0  0  0
 44 25  1  0  0  0  0
 45 70  1  0  0  0  0
 45 71  1  0  0  0  0
 45 46  1  0  0  0  0
 47 46  1  0  0  0  0
 47 69  1  0  0  0  0
 48 49  1  0  0  0  0
 48 47  2  0  0  0  0
 49 58  2  0  0  0  0
 50 49  1  0  0  0  0
 51 74  1  0  0  0  0
 51 50  2  0  0  0  0
 52 51  1  0  0  0  0
 53 52  2  0  0  0  0
 53 56  1  0  0  0  0
 54 53  1  0  0  0  0
 55 54  2  0  0  0  0
 56 57  2  0  0  0  0
 57 50  1  0  0  0  0
 57 77  1  0  0  0  0
 58 78  1  0  0  0  0
 58 59  1  0  0  0  0
 59 60  1  0  0  0  0
 60 68  2  0  0  0  0
 60 61  1  0  0  0  0
 61 62  2  0  0  0  0
 62 63  1  0  0  0  0
 62 80  1  0  0  0  0
 63 64  1  0  0  0  0
 64 65  1  0  0  0  0
 64 81  1  1  0  0  0
 64 66  1  0  0  0  0
 65 84  1  0  0  0  0
 66 98  1  0  0  0  0
 67 86  1  0  0  0  0
 67 63  2  0  0  0  0
 68 67  1  0  0  0  0
 69 59  2  0  0  0  0
 69 88  1  0  0  0  0
 72 45  1  0  0  0  0
 73 48  1  0  0  0  0
 75 52  1  0  0  0  0
 76 56  1  0  0  0  0
 79 61  1  0  0  0  0
 82 65  1  0  0  0  0
 83 65  1  0  0  0  0
 85 66  1  0  0  0  0
 87 68  1  0  0  0  0
 89116  1  0  0  0  0
 89114  1  0  0  0  0
 90 89  1  0  0  0  0
 91 90  1  0  0  0  0
 91 92  1  0  0  0  0
 92117  1  0  0  0  0
 93 92  2  0  0  0  0
 93 94  1  0  0  0  0
 94101  2  0  0  0  0
 94 95  1  0  0  0  0
 95118  1  0  0  0  0
 95 96  2  0  0  0  0
 96119  1  0  0  0  0
 97 96  1  0  0  0  0
 97 98  1  0  0  0  0
 98 99  2  0  0  0  0
100 97  2  0  0  0  0
101100  1  0  0  0  0
102 93  1  0  0  0  0
103113  1  0  0  0  0
103102  2  0  0  0  0
104103  1  0  0  0  0
105104  1  0  0  0  0
105123  1  0  0  0  0
106105  2  0  0  0  0
107111  2  0  0  0  0
107106  1  0  0  0  0
108125  1  1  0  0  0
108107  1  0  0  0  0
109128  1  0  0  0  0
109108  1  0  0  0  0
110108  1  0  0  0  0
111112  1  0  0  0  0
112131  1  0  0  0  0
112104  2  0  0  0  0
113 91  2  0  0  0  0
115 89  1  0  0  0  0
120100  1  0  0  0  0
121101  1  0  0  0  0
122102  1  0  0  0  0
124106  1  0  0  0  0
126109  1  0  0  0  0
127109  1  0  0  0  0
129110  1  0  0  0  0
130111  1  0  0  0  0
132113  1  0  0  0  0
133137  1  0  0  0  0
133136  1  0  0  0  0
134133  1  0  0  0  0
135133  1  0  0  0  0
138147  1  0  0  0  0
138139  1  0  0  0  0
139141  1  0  0  0  0
139142  1  0  0  0  0
140149  1  0  0  0  0
140139  1  0  0  0  0
141152  1  0  0  0  0
141151  1  0  0  0  0
142143  1  0  0  0  0
143144  2  0  0  0  0
143110  1  0  0  0  0
145138  1  0  0  0  0
146138  1  0  0  0  0
148140  1  0  0  0  0
150140  1  0  0  0  0
153141  1  0  0  0  0
M  END
