mop_tetramer.pdb
 OpenBabel09232415293D

197208  0  0  1  0  0  0  0  0999 V2000
   -3.1370   -5.0350    0.0730 C   0  0  0  0  0  0  0  0  0  0  0  0
   -4.0510   -5.3890   -0.7180 O   0  0  0  0  0  0  0  0  0  0  0  0
   -2.8280   -3.6030    0.0880 C   0  0  0  0  0  0  0  0  0  0  0  0
   -1.7760   -3.0190    0.9820 C   0  0  0  0  0  0  0  0  0  0  0  0
   -1.4880   -1.5960    1.0250 C   0  0  0  0  0  0  0  0  0  0  0  0
   -2.1920   -0.6430    0.1560 C   0  0  0  0  0  0  0  0  0  0  0  0
   -1.8760    0.7940    0.1310 C   0  0  0  0  0  0  0  0  0  0  0  0
   -0.4970    1.3160   -0.1400 C   0  0  0  0  0  0  0  0  0  0  0  0
   -0.2680    2.7670   -0.0240 C   0  0  0  0  0  0  0  0  0  0  0  0
   -1.3450    3.6860    0.2170 C   0  0  0  0  0  0  0  0  0  0  0  0
   -0.9830    5.0080    0.2400 O   0  0  0  0  0  0  0  0  0  0  0  0
   -1.9980    5.9530    0.5130 C   0  0  0  0  0  0  0  0  0  0  0  0
   -2.7010    3.2060    0.3740 C   0  0  0  0  0  0  0  0  0  0  0  0
   -2.9570    1.7790    0.3270 C   0  0  0  0  0  0  0  0  0  0  0  0
    0.6320    0.4540   -0.5090 C   0  0  0  0  0  0  0  0  0  0  0  0
    0.5830   -0.4570   -1.6650 C   0  0  0  0  0  0  0  0  0  0  0  0
    1.7020   -1.3200   -1.9990 C   0  0  0  0  0  0  0  0  0  0  0  0
    2.9080   -1.2820   -1.1950 C   0  0  0  0  0  0  0  0  0  0  0  0
    2.9880   -0.3930   -0.0340 C   0  0  0  0  0  0  0  0  0  0  0  0
    1.8600    0.4630    0.2970 C   0  0  0  0  0  0  0  0  0  0  0  0
    4.1140   -0.5210    0.9750 C   0  0  1  0  0  0  0  0  0  0  0  0
    4.2200   -1.8730    1.5590 N   0  0  0  0  0  0  0  0  0  0  0  0
    5.4160   -0.1570    0.2520 C   0  0  0  0  0  0  0  0  0  0  0  0
   -3.1970   -1.1980   -0.7550 C   0  0  0  0  0  0  0  0  0  0  0  0
   -3.4850   -2.6130   -0.7940 C   0  0  0  0  0  0  0  0  0  0  0  0
   -1.1360   -3.6870    1.5520 H   0  0  0  0  0  0  0  0  0  0  0  0
   -0.6260   -1.2810    1.6050 H   0  0  0  0  0  0  0  0  0  0  0  0
    0.7460    3.1380   -0.1290 H   0  0  0  0  0  0  0  0  0  0  0  0
   -1.5390    6.9460    0.5260 H   0  0  0  0  0  0  0  0  0  0  0  0
   -2.4520    5.7770    1.4970 H   0  0  0  0  0  0  0  0  0  0  0  0
   -2.7590    5.9420   -0.2780 H   0  0  0  0  0  0  0  0  0  0  0  0
   -3.5320    3.8570    0.5860 H   0  0  0  0  0  0  0  0  0  0  0  0
   -3.9620    1.4100    0.4990 H   0  0  0  0  0  0  0  0  0  0  0  0
   -0.3550   -0.6040   -2.1830 H   0  0  0  0  0  0  0  0  0  0  0  0
    1.5340   -2.1740   -2.6430 H   0  0  0  0  0  0  0  0  0  0  0  0
    3.5810   -2.1300   -1.2400 H   0  0  0  0  0  0  0  0  0  0  0  0
    1.8450    0.9400    1.2720 H   0  0  0  0  0  0  0  0  0  0  0  0
    3.9930    0.2200    1.7790 H   0  0  0  0  0  0  0  0  0  0  0  0
    4.1710   -2.5420    0.8070 H   0  0  0  0  0  0  0  0  0  0  0  0
    5.6770   -0.8970   -0.5140 H   0  0  0  0  0  0  0  0  0  0  0  0
    6.2550   -0.0830    0.9510 H   0  0  0  0  0  0  0  0  0  0  0  0
    5.3160    0.8120   -0.2520 H   0  0  0  0  0  0  0  0  0  0  0  0
   -3.6950   -0.5540   -1.4640 H   0  0  0  0  0  0  0  0  0  0  0  0
   -4.2300   -2.9840   -1.4830 H   0  0  0  0  0  0  0  0  0  0  0  0
    3.0850   -2.1830    2.3640 C   0  0  0  0  0  0  0  0  0  0  0  0
    2.3540   -3.0890    1.9040 O   0  0  0  0  0  0  0  0  0  0  0  0
    3.0480   -1.9290    3.8020 C   0  0  0  0  0  0  0  0  0  0  0  0
    4.2240   -1.4050    4.5200 C   0  0  0  0  0  0  0  0  0  0  0  0
    4.2410   -1.2310    5.9570 C   0  0  0  0  0  0  0  0  0  0  0  0
    3.0530   -1.5060    6.7720 C   0  0  0  0  0  0  0  0  0  0  0  0
    3.0280   -1.2570    8.2180 C   0  0  0  0  0  0  0  0  0  0  0  0
    3.3730    0.0730    8.8110 C   0  0  0  0  0  0  0  0  0  0  0  0
    3.4520    0.1810   10.2740 C   0  0  0  0  0  0  0  0  0  0  0  0
    3.1120   -0.9250   11.1330 C   0  0  0  0  0  0  0  0  0  0  0  0
    3.1660   -0.6440   12.4750 O   0  0  0  0  0  0  0  0  0  0  0  0
    2.8900   -1.7070   13.3670 C   0  0  0  0  0  0  0  0  0  0  0  0
    2.6980   -2.1920   10.5700 C   0  0  0  0  0  0  0  0  0  0  0  0
    2.6440   -2.3470    9.1310 C   0  0  0  0  0  0  0  0  0  0  0  0
    3.6110    1.2760    8.0070 C   0  0  0  0  0  0  0  0  0  0  0  0
    2.6330    1.7640    7.0210 C   0  0  0  0  0  0  0  0  0  0  0  0
    2.8910    2.9420    6.2150 C   0  0  0  0  0  0  0  0  0  0  0  0
    4.1310    3.6750    6.3830 C   0  0  0  0  0  0  0  0  0  0  0  0
    5.1260    3.2200    7.3580 C   0  0  0  0  0  0  0  0  0  0  0  0
    4.8660    2.0260    8.1470 C   0  0  0  0  0  0  0  0  0  0  0  0
    6.5250    3.8080    7.3860 C   0  0  1  0  0  0  0  0  0  0  0  0
    7.2350    3.7040    6.0950 N   0  0  0  0  0  0  0  0  0  0  0  0
    6.3980    5.2830    7.7900 C   0  0  0  0  0  0  0  0  0  0  0  0
    1.8530   -1.9760    6.0680 C   0  0  0  0  0  0  0  0  0  0  0  0
    1.8500   -2.1730    4.6330 C   0  0  0  0  0  0  0  0  0  0  0  0
    5.0820   -1.0640    3.9510 H   0  0  0  0  0  0  0  0  0  0  0  0
    5.1060   -0.7340    6.3850 H   0  0  0  0  0  0  0  0  0  0  0  0
    3.7420    1.1300   10.7090 H   0  0  0  0  0  0  0  0  0  0  0  0
    3.0090   -1.3230   14.3820 H   0  0  0  0  0  0  0  0  0  0  0  0
    3.6000   -2.5300   13.2290 H   0  0  0  0  0  0  0  0  0  0  0  0
    1.8580   -2.0500   13.2510 H   0  0  0  0  0  0  0  0  0  0  0  0
    2.5060   -3.0680   11.1670 H   0  0  0  0  0  0  0  0  0  0  0  0
    2.4060   -3.3130    8.7040 H   0  0  0  0  0  0  0  0  0  0  0  0
    1.7740    1.1500    6.7820 H   0  0  0  0  0  0  0  0  0  0  0  0
    2.3050    3.1010    5.3180 H   0  0  0  0  0  0  0  0  0  0  0  0
    4.4580    4.3150    5.5720 H   0  0  0  0  0  0  0  0  0  0  0  0
    5.7020    1.5580    8.6600 H   0  0  0  0  0  0  0  0  0  0  0  0
    7.1250    3.3270    8.1740 H   0  0  0  0  0  0  0  0  0  0  0  0
    6.5970    4.0120    5.3730 H   0  0  0  0  0  0  0  0  0  0  0  0
    5.9040    5.8760    7.0120 H   0  0  0  0  0  0  0  0  0  0  0  0
    7.3760    5.7290    7.9890 H   0  0  0  0  0  0  0  0  0  0  0  0
    5.7960    5.3790    8.7050 H   0  0  0  0  0  0  0  0  0  0  0  0
    0.9280   -2.1100    6.6100 H   0  0  0  0  0  0  0  0  0  0  0  0
    0.9560   -2.5320    4.1370 H   0  0  0  0  0  0  0  0  0  0  0  0
    7.4910    2.3460    5.7480 C   0  0  0  0  0  0  0  0  0  0  0  0
    6.8510    1.9410    4.7510 O   0  0  0  0  0  0  0  0  0  0  0  0
    8.7350    1.6640    6.0890 C   0  0  0  0  0  0  0  0  0  0  0  0
    9.8530    2.3790    6.7310 C   0  0  0  0  0  0  0  0  0  0  0  0
   11.1270    1.7430    6.9990 C   0  0  0  0  0  0  0  0  0  0  0  0
   11.3530    0.3250    6.6970 C   0  0  0  0  0  0  0  0  0  0  0  0
   12.6120   -0.3490    7.0350 C   0  0  0  0  0  0  0  0  0  0  0  0
   13.1660   -0.3610    8.4270 C   0  0  0  0  0  0  0  0  0  0  0  0
   14.5100   -0.9200    8.6340 C   0  0  0  0  0  0  0  0  0  0  0  0
   15.2390   -1.5630    7.5620 C   0  0  0  0  0  0  0  0  0  0  0  0
   16.4450   -2.0870    7.9280 O   0  0  0  0  0  0  0  0  0  0  0  0
   17.2130   -2.6950    6.9060 C   0  0  0  0  0  0  0  0  0  0  0  0
   14.6690   -1.6360    6.2350 C   0  0  0  0  0  0  0  0  0  0  0  0
   13.3740   -1.0290    5.9770 C   0  0  0  0  0  0  0  0  0  0  0  0
   12.4400    0.1710    9.5870 C   0  0  0  0  0  0  0  0  0  0  0  0
   11.0800   -0.2730    9.9340 C   0  0  0  0  0  0  0  0  0  0  0  0
   10.3590    0.3000   11.0550 C   0  0  0  0  0  0  0  0  0  0  0  0
   10.9940    1.3070   11.8840 C   0  0  0  0  0  0  0  0  0  0  0  0
   12.3450    1.7750   11.5650 C   0  0  0  0  0  0  0  0  0  0  0  0
   13.0510    1.2100   10.4270 C   0  0  0  0  0  0  0  0  0  0  0  0
   12.9290    3.0050   12.2310 C   0  0  1  0  0  0  0  0  0  0  0  0
   12.0960    4.2130   12.0860 N   0  0  0  0  0  0  0  0  0  0  0  0
   13.1170    2.6750   13.7180 C   0  0  0  0  0  0  0  0  0  0  0  0
   10.2380   -0.4140    6.0930 C   0  0  0  0  0  0  0  0  0  0  0  0
    8.9670    0.2290    5.8180 C   0  0  0  0  0  0  0  0  0  0  0  0
    9.6960    3.3940    7.0750 H   0  0  0  0  0  0  0  0  0  0  0  0
   11.8490    2.3120    7.5760 H   0  0  0  0  0  0  0  0  0  0  0  0
   14.9560   -0.8480    9.6180 H   0  0  0  0  0  0  0  0  0  0  0  0
   18.1450   -3.0450    7.3580 H   0  0  0  0  0  0  0  0  0  0  0  0
   17.4660   -1.9740    6.1210 H   0  0  0  0  0  0  0  0  0  0  0  0
   16.6910   -3.5660    6.4920 H   0  0  0  0  0  0  0  0  0  0  0  0
   15.1860   -2.0700    5.4060 H   0  0  0  0  0  0  0  0  0  0  0  0
   12.9910   -0.9930    4.9640 H   0  0  0  0  0  0  0  0  0  0  0  0
   10.5410   -0.9150    9.2480 H   0  0  0  0  0  0  0  0  0  0  0  0
    9.2800    0.2000   11.0880 H   0  0  0  0  0  0  0  0  0  0  0  0
   10.3560    1.9420   12.4880 H   0  0  0  0  0  0  0  0  0  0  0  0
   13.9330    1.7250   10.0590 H   0  0  0  0  0  0  0  0  0  0  0  0
   13.9360    3.2090   11.8360 H   0  0  0  0  0  0  0  0  0  0  0  0
   11.1490    3.9590   12.3290 H   0  0  0  0  0  0  0  0  0  0  0  0
   12.1580    2.5240   14.2260 H   0  0  0  0  0  0  0  0  0  0  0  0
   13.6570    3.4700   14.2400 H   0  0  0  0  0  0  0  0  0  0  0  0
   13.6970    1.7490   13.8350 H   0  0  0  0  0  0  0  0  0  0  0  0
   10.3270   -1.4760    5.9130 H   0  0  0  0  0  0  0  0  0  0  0  0
    8.1560   -0.3410    5.3790 H   0  0  0  0  0  0  0  0  0  0  0  0
   11.9810    4.6170   10.7230 C   0  0  0  0  0  0  0  0  0  0  0  0
   10.8270    4.5060   10.2540 O   0  0  0  0  0  0  0  0  0  0  0  0
   12.8550    5.6160   10.1230 C   0  0  0  0  0  0  0  0  0  0  0  0
   13.8520    6.3150   10.9290 C   0  0  0  0  0  0  0  0  0  0  0  0
   14.7570    7.2710   10.3400 C   0  0  0  0  0  0  0  0  0  0  0  0
   14.6490    7.7290    8.9630 C   0  0  0  0  0  0  0  0  0  0  0  0
   15.5750    8.7350    8.4210 C   0  0  0  0  0  0  0  0  0  0  0  0
   17.0710    8.6410    8.5850 C   0  0  0  0  0  0  0  0  0  0  0  0
   17.8840    9.7760    8.1470 C   0  0  0  0  0  0  0  0  0  0  0  0
   17.3010   10.9250    7.5110 C   0  0  0  0  0  0  0  0  0  0  0  0
   18.2160   11.8760    7.1240 O   0  0  0  0  0  0  0  0  0  0  0  0
   17.7220   13.0220    6.4800 C   0  0  0  0  0  0  0  0  0  0  0  0
   15.8790   11.0130    7.2990 C   0  0  0  0  0  0  0  0  0  0  0  0
   15.0280    9.9310    7.7550 C   0  0  0  0  0  0  0  0  0  0  0  0
   17.7590    7.4720    9.1550 C   0  0  0  0  0  0  0  0  0  0  0  0
   17.5390    6.1060    8.6550 C   0  0  0  0  0  0  0  0  0  0  0  0
   18.1850    4.9600    9.2700 C   0  0  0  0  0  0  0  0  0  0  0  0
   19.0710    5.1460   10.4050 C   0  0  0  0  0  0  0  0  0  0  0  0
   19.3180    6.4880   10.9290 C   0  0  0  0  0  0  0  0  0  0  0  0
   18.6700    7.6320   10.3020 C   0  0  0  0  0  0  0  0  0  0  0  0
   20.1110    6.7260   12.1950 C   0  0  1  0  0  0  0  0  0  0  0  0
   19.5340    6.1180   13.3890 N   0  0  0  0  0  0  0  0  0  0  0  0
   21.5390    6.2040   11.9800 C   0  0  0  0  0  0  0  0  0  0  0  0
   13.6610    7.0390    8.1320 C   0  0  0  0  0  0  0  0  0  0  0  0
   12.8120    5.9960    8.6890 C   0  0  0  0  0  0  0  0  0  0  0  0
   14.0250    5.9840   11.9450 H   0  0  0  0  0  0  0  0  0  0  0  0
   15.7130    7.3580   10.8230 H   0  0  0  0  0  0  0  0  0  0  0  0
   18.9610    9.7240    8.2840 H   0  0  0  0  0  0  0  0  0  0  0  0
   18.5600   13.6590    6.2150 H   0  0  0  0  0  0  0  0  0  0  0  0
   17.0560   13.5920    7.1480 H   0  0  0  0  0  0  0  0  0  0  0  0
   17.1900   12.7570    5.5520 H   0  0  0  0  0  0  0  0  0  0  0  0
   15.3970   11.8790    6.8730 H   0  0  0  0  0  0  0  0  0  0  0  0
   13.9490   10.0310    7.6980 H   0  0  0  0  0  0  0  0  0  0  0  0
   16.7420    5.9310    7.9420 H   0  0  0  0  0  0  0  0  0  0  0  0
   17.7990    3.9700    9.0540 H   0  0  0  0  0  0  0  0  0  0  0  0
   19.3340    4.2840   11.0060 H   0  0  0  0  0  0  0  0  0  0  0  0
   18.6730    8.5750   10.8380 H   0  0  0  0  0  0  0  0  0  0  0  0
   20.2240    7.8040   12.3720 H   0  0  0  0  0  0  0  0  0  0  0  0
   19.3490    5.1290   13.2640 H   0  0  0  0  0  0  0  0  0  0  0  0
   21.5670    5.1200   11.8200 H   0  0  0  0  0  0  0  0  0  0  0  0
   22.1800    6.4340   12.8360 H   0  0  0  0  0  0  0  0  0  0  0  0
   21.9860    6.6790   11.0970 H   0  0  0  0  0  0  0  0  0  0  0  0
   13.6330    7.2170    7.0660 H   0  0  0  0  0  0  0  0  0  0  0  0
   12.1170    5.4640    8.0510 H   0  0  0  0  0  0  0  0  0  0  0  0
   -2.9990   -7.0470    1.2240 C   0  0  0  0  0  0  0  0  0  0  0  0
   -2.4360   -5.7910    0.9870 O   0  0  0  0  0  0  0  0  0  0  0  0
   -3.9910   -6.9260    1.6740 H   0  0  0  0  0  0  0  0  0  0  0  0
   -2.3710   -7.5980    1.9410 H   0  0  0  0  0  0  0  0  0  0  0  0
   -3.0600   -7.6480    0.3110 H   0  0  0  0  0  0  0  0  0  0  0  0
   17.1670   10.1720   14.0790 C   0  0  0  0  0  0  0  0  0  0  0  0
   16.8830    8.6610   14.1160 C   0  0  0  0  0  0  0  0  0  0  0  0
   16.2940    8.2840   15.4770 C   0  0  0  0  0  0  0  0  0  0  0  0
   15.8550    8.4370   13.0250 C   0  0  0  0  0  0  0  0  0  0  0  0
   18.1540    8.0370   13.8280 O   0  0  0  0  0  0  0  0  0  0  0  0
   18.2820    6.6640   13.7950 C   0  0  0  0  0  0  0  0  0  0  0  0
   17.5130    5.7290   14.1040 O   0  0  0  0  0  0  0  0  0  0  0  0
   16.2650   10.7610   14.2650 H   0  0  0  0  0  0  0  0  0  0  0  0
   17.9270   10.4470   14.8210 H   0  0  0  0  0  0  0  0  0  0  0  0
   17.5680   10.4670   13.1020 H   0  0  0  0  0  0  0  0  0  0  0  0
   17.0390    8.3930   16.2720 H   0  0  0  0  0  0  0  0  0  0  0  0
   15.9440    7.2480   15.4990 H   0  0  0  0  0  0  0  0  0  0  0  0
   15.4220    8.9040   15.7140 H   0  0  0  0  0  0  0  0  0  0  0  0
   16.2840    8.7580   12.0730 H   0  0  0  0  0  0  0  0  0  0  0  0
   15.5780    7.3850   12.9710 H   0  0  0  0  0  0  0  0  0  0  0  0
   14.9360    9.0120   13.1840 H   0  0  0  0  0  0  0  0  0  0  0  0
  1  3  1  0  0  0  0
  1178  1  0  0  0  0
  2  1  2  0  0  0  0
  3  4  1  0  0  0  0
  4  5  2  0  0  0  0
  4 26  1  0  0  0  0
  5 27  1  0  0  0  0
  6  5  1  0  0  0  0
  7  6  1  0  0  0  0
  7 14  1  0  0  0  0
  8  9  1  0  0  0  0
  8  7  2  0  0  0  0
  9 10  2  0  0  0  0
 10 11  1  0  0  0  0
 10 13  1  0  0  0  0
 11 12  1  0  0  0  0
 12 29  1  0  0  0  0
 12 30  1  0  0  0  0
 13 32  1  0  0  0  0
 14 13  2  0  0  0  0
 14 33  1  0  0  0  0
 15  8  1  0  0  0  0
 15 20  1  0  0  0  0
 16 15  2  0  0  0  0
 17 16  1  0  0  0  0
 17 18  2  0  0  0  0
 18 19  1  0  0  0  0
 19 20  2  0  0  0  0
 19 21  1  0  0  0  0
 20 37  1  0  0  0  0
 21 22  1  0  0  0  0
 21 38  1  1  0  0  0
 22 45  1  0  0  0  0
 23 41  1  0  0  0  0
 23 21  1  0  0  0  0
 24  6  2  0  0  0  0
 25 24  1  0  0  0  0
 25  3  2  0  0  0  0
 28  9  1  0  0  0  0
 31 12  1  0  0  0  0
 34 16  1  0  0  0  0
 35 17  1  0  0  0  0
 36 18  1  0  0  0  0
 39 22  1  0  0  0  0
 40 23  1  0  0  0  0
 42 23  1  0  0  0  0
 43 24  1  0  0  0  0
 44 25  1  0  0  0  0
 45 47  1  0  0  0  0
 46 45  2  0  0  0  0
 47 48  2  0  0  0  0
 47 69  1  0  0  0  0
 48 49  1  0  0  0  0
 49 71  1  0  0  0  0
 49 50  2  0  0  0  0
 50 51  1  0  0  0  0
 51 52  2  0  0  0  0
 51 58  1  0  0  0  0
 52 53  1  0  0  0  0
 53 72  1  0  0  0  0
 53 54  2  0  0  0  0
 54 55  1  0  0  0  0
 55 56  1  0  0  0  0
 56 73  1  0  0  0  0
 57 54  1  0  0  0  0
 57 76  1  0  0  0  0
 58 57  2  0  0  0  0
 59 64  1  0  0  0  0
 59 52  1  0  0  0  0
 60 59  2  0  0  0  0
 61 62  2  0  0  0  0
 61 60  1  0  0  0  0
 62 63  1  0  0  0  0
 63 65  1  0  0  0  0
 63 64  2  0  0  0  0
 64 81  1  0  0  0  0
 65 67  1  0  0  0  0
 65 82  1  1  0  0  0
 66 65  1  0  0  0  0
 67 85  1  0  0  0  0
 67 86  1  0  0  0  0
 68 87  1  0  0  0  0
 68 50  1  0  0  0  0
 69 68  2  0  0  0  0
 70 48  1  0  0  0  0
 74 56  1  0  0  0  0
 75 56  1  0  0  0  0
 77 58  1  0  0  0  0
 78 60  1  0  0  0  0
 79 61  1  0  0  0  0
 80 62  1  0  0  0  0
 83 66  1  0  0  0  0
 84 67  1  0  0  0  0
 88 69  1  0  0  0  0
 89 91  1  0  0  0  0
 89 66  1  0  0  0  0
 90 89  2  0  0  0  0
 91 92  1  0  0  0  0
 92 93  2  0  0  0  0
 92114  1  0  0  0  0
 93115  1  0  0  0  0
 94 93  1  0  0  0  0
 94 95  1  0  0  0  0
 95 96  1  0  0  0  0
 96 97  2  0  0  0  0
 96103  1  0  0  0  0
 97116  1  0  0  0  0
 98 99  1  0  0  0  0
 98 97  1  0  0  0  0
100117  1  0  0  0  0
100 99  1  0  0  0  0
101 98  2  0  0  0  0
102101  1  0  0  0  0
102 95  2  0  0  0  0
103104  2  0  0  0  0
103108  1  0  0  0  0
104105  1  0  0  0  0
105123  1  0  0  0  0
105106  2  0  0  0  0
106124  1  0  0  0  0
107106  1  0  0  0  0
107109  1  0  0  0  0
108107  2  0  0  0  0
109126  1  6  0  0  0
109111  1  0  0  0  0
110109  1  0  0  0  0
110127  1  0  0  0  0
111130  1  0  0  0  0
111128  1  0  0  0  0
111129  1  0  0  0  0
112 94  2  0  0  0  0
113 91  2  0  0  0  0
113112  1  0  0  0  0
118100  1  0  0  0  0
119100  1  0  0  0  0
120101  1  0  0  0  0
121102  1  0  0  0  0
122104  1  0  0  0  0
125108  1  0  0  0  0
131112  1  0  0  0  0
132113  1  0  0  0  0
133110  1  0  0  0  0
134133  2  0  0  0  0
135133  1  0  0  0  0
135136  1  0  0  0  0
136158  1  0  0  0  0
137159  1  0  0  0  0
137136  2  0  0  0  0
138137  1  0  0  0  0
139140  1  0  0  0  0
139138  1  0  0  0  0
140147  1  0  0  0  0
141160  1  0  0  0  0
141140  2  0  0  0  0
142141  1  0  0  0  0
143142  1  0  0  0  0
144143  1  0  0  0  0
144162  1  0  0  0  0
145142  2  0  0  0  0
145146  1  0  0  0  0
146139  2  0  0  0  0
147152  1  0  0  0  0
148147  2  0  0  0  0
148149  1  0  0  0  0
149150  2  0  0  0  0
150151  1  0  0  0  0
150168  1  0  0  0  0
151153  1  0  0  0  0
152169  1  0  0  0  0
152151  2  0  0  0  0
153170  1  1  0  0  0
153154  1  0  0  0  0
154187  1  0  0  0  0
155153  1  0  0  0  0
155173  1  0  0  0  0
156157  1  0  0  0  0
156138  2  0  0  0  0
157135  2  0  0  0  0
161144  1  0  0  0  0
163144  1  0  0  0  0
164145  1  0  0  0  0
165146  1  0  0  0  0
166148  1  0  0  0  0
167149  1  0  0  0  0
171154  1  0  0  0  0
172155  1  0  0  0  0
174155  1  0  0  0  0
175156  1  0  0  0  0
176157  1  0  0  0  0
177179  1  0  0  0  0
177180  1  0  0  0  0
178177  1  0  0  0  0
181177  1  0  0  0  0
182183  1  0  0  0  0
182189  1  0  0  0  0
182190  1  0  0  0  0
183184  1  0  0  0  0
184193  1  0  0  0  0
184194  1  0  0  0  0
184192  1  0  0  0  0
185197  1  0  0  0  0
185183  1  0  0  0  0
186183  1  0  0  0  0
187186  1  0  0  0  0
187188  2  0  0  0  0
191182  1  0  0  0  0
195185  1  0  0  0  0
196185  1  0  0  0  0
M  END
