mop_tetramer.pdb
 OpenBabel08252511323D

197208  0  0  1  0  0  0  0  0999 V2000
   -3.0140   -6.0980   -1.1340 C   0  0  0  0  0  0  0  0  0  0  0  0
   -3.9500   -6.2530   -1.9000 O   0  0  0  0  0  0  0  0  0  0  0  0
   -2.5840   -4.7850   -0.5980 C   0  0  0  0  0  0  0  0  0  0  0  0
   -1.5990   -4.6970    0.3960 C   0  0  0  0  0  0  0  0  0  0  0  0
   -1.3690   -3.4920    1.0420 C   0  0  0  0  0  0  0  0  0  0  0  0
   -2.0970   -2.3540    0.6830 C   0  0  0  0  0  0  0  0  0  0  0  0
   -1.8610   -1.0880    1.3690 C   0  0  0  0  0  0  0  0  0  0  0  0
   -0.6340   -0.3970    1.2730 C   0  0  0  0  0  0  0  0  0  0  0  0
   -0.5650    0.8720    1.8790 C   0  0  0  0  0  0  0  0  0  0  0  0
   -1.6550    1.4400    2.5440 C   0  0  0  0  0  0  0  0  0  0  0  0
   -1.5360    2.7510    2.9300 O   0  0  0  0  0  0  0  0  0  0  0  0
   -2.7680    3.4640    2.7940 C   0  0  0  0  0  0  0  0  0  0  0  0
   -2.8010    0.6860    2.7490 C   0  0  0  0  0  0  0  0  0  0  0  0
   -2.9090   -0.5600    2.1490 C   0  0  0  0  0  0  0  0  0  0  0  0
    0.5490   -0.9240    0.5410 C   0  0  0  0  0  0  0  0  0  0  0  0
    0.4990   -1.2690   -0.8160 C   0  0  0  0  0  0  0  0  0  0  0  0
    1.6410   -1.6560   -1.5150 C   0  0  0  0  0  0  0  0  0  0  0  0
    2.8600   -1.7590   -0.8530 C   0  0  0  0  0  0  0  0  0  0  0  0
    2.9550   -1.4970    0.5230 C   0  0  0  0  0  0  0  0  0  0  0  0
    1.7790   -1.1000    1.1980 C   0  0  0  0  0  0  0  0  0  0  0  0
    4.2640   -1.7510    1.2620 C   0  0  2  0  0  0  0  0  0  0  0  0
    4.3270   -1.2710    2.6490 N   0  0  0  0  0  0  0  0  0  0  0  0
    5.5660   -1.4550    0.4950 C   0  0  0  0  0  0  0  0  0  0  0  0
   -3.0430   -2.4330   -0.3530 C   0  0  0  0  0  0  0  0  0  0  0  0
   -3.2890   -3.6430   -0.9920 C   0  0  0  0  0  0  0  0  0  0  0  0
   -1.0290   -5.5660    0.7110 H   0  0  0  0  0  0  0  0  0  0  0  0
   -0.6230   -3.4410    1.8320 H   0  0  0  0  0  0  0  0  0  0  0  0
    0.3400    1.4560    1.7720 H   0  0  0  0  0  0  0  0  0  0  0  0
   -2.5610    4.5310    2.7890 H   0  0  0  0  0  0  0  0  0  0  0  0
   -3.4230    3.2400    3.6360 H   0  0  0  0  0  0  0  0  0  0  0  0
   -3.2770    3.2490    1.8550 H   0  0  0  0  0  0  0  0  0  0  0  0
   -3.6330    1.0560    3.3390 H   0  0  0  0  0  0  0  0  0  0  0  0
   -3.8300   -1.1260    2.2780 H   0  0  0  0  0  0  0  0  0  0  0  0
   -0.4380   -1.2140   -1.3620 H   0  0  0  0  0  0  0  0  0  0  0  0
    1.5760   -1.8700   -2.5790 H   0  0  0  0  0  0  0  0  0  0  0  0
    3.7280   -2.0740   -1.4280 H   0  0  0  0  0  0  0  0  0  0  0  0
    1.8020   -0.9290    2.2710 H   0  0  0  0  0  0  0  0  0  0  0  0
    4.2620   -2.8430    1.3940 H   0  0  0  0  0  0  0  0  0  0  0  0
    4.5220   -1.9860    3.3390 H   0  0  0  0  0  0  0  0  0  0  0  0
    6.3170   -0.9720    1.1310 H   0  0  0  0  0  0  0  0  0  0  0  0
    5.4150   -0.8280   -0.3910 H   0  0  0  0  0  0  0  0  0  0  0  0
    6.0180   -2.3890    0.1420 H   0  0  0  0  0  0  0  0  0  0  0  0
   -3.5990   -1.5460   -0.6560 H   0  0  0  0  0  0  0  0  0  0  0  0
   -4.0520   -3.7000   -1.7650 H   0  0  0  0  0  0  0  0  0  0  0  0
    4.1520   -0.0520    3.2530 C   0  0  0  0  0  0  0  0  0  0  0  0
    4.2100    0.0100    4.4800 O   0  0  0  0  0  0  0  0  0  0  0  0
    3.7840    1.1600    2.4880 C   0  0  0  0  0  0  0  0  0  0  0  0
    4.3760    1.4720    1.2690 C   0  0  0  0  0  0  0  0  0  0  0  0
    3.9010    2.5270    0.5020 C   0  0  0  0  0  0  0  0  0  0  0  0
    2.8740    3.3440    0.9730 C   0  0  0  0  0  0  0  0  0  0  0  0
    2.4650    4.4950    0.1660 C   0  0  0  0  0  0  0  0  0  0  0  0
    1.9050    4.3880   -1.1280 C   0  0  0  0  0  0  0  0  0  0  0  0
    1.5910    5.5970   -1.7830 C   0  0  0  0  0  0  0  0  0  0  0  0
    1.8110    6.8590   -1.2270 C   0  0  0  0  0  0  0  0  0  0  0  0
    1.3670    7.9110   -1.9740 O   0  0  0  0  0  0  0  0  0  0  0  0
    1.0380    9.1000   -1.2610 C   0  0  0  0  0  0  0  0  0  0  0  0
    2.4240    6.9500    0.0090 C   0  0  0  0  0  0  0  0  0  0  0  0
    2.7360    5.7790    0.6990 C   0  0  0  0  0  0  0  0  0  0  0  0
    1.4910    3.1360   -1.8310 C   0  0  0  0  0  0  0  0  0  0  0  0
    0.4930    2.3300   -1.2910 C   0  0  0  0  0  0  0  0  0  0  0  0
   -0.2270    1.4390   -2.0900 C   0  0  0  0  0  0  0  0  0  0  0  0
    0.1290    1.2160   -3.4100 C   0  0  0  0  0  0  0  0  0  0  0  0
    1.2070    1.9030   -3.9720 C   0  0  0  0  0  0  0  0  0  0  0  0
    1.8780    2.8510   -3.1500 C   0  0  0  0  0  0  0  0  0  0  0  0
    1.6810    1.5840   -5.3860 C   0  0  2  0  0  0  0  0  0  0  0  0
    2.4770    2.6380   -6.0070 N   0  0  0  0  0  0  0  0  0  0  0  0
    0.6890    1.0050   -6.4200 C   0  0  0  0  0  0  0  0  0  0  0  0
    2.3500    3.1000    2.2550 C   0  0  0  0  0  0  0  0  0  0  0  0
    2.7970    2.0060    3.0060 C   0  0  0  0  0  0  0  0  0  0  0  0
    5.2200    0.9200    0.8950 H   0  0  0  0  0  0  0  0  0  0  0  0
    4.3530    2.7240   -0.4670 H   0  0  0  0  0  0  0  0  0  0  0  0
    1.0890    5.5410   -2.7410 H   0  0  0  0  0  0  0  0  0  0  0  0
    0.2900    9.6410   -1.8490 H   0  0  0  0  0  0  0  0  0  0  0  0
    1.9240    9.7320   -1.1590 H   0  0  0  0  0  0  0  0  0  0  0  0
    0.5970    8.9030   -0.2790 H   0  0  0  0  0  0  0  0  0  0  0  0
    2.6480    7.9070    0.4660 H   0  0  0  0  0  0  0  0  0  0  0  0
    3.2010    5.8660    1.6810 H   0  0  0  0  0  0  0  0  0  0  0  0
    0.1970    2.4660   -0.2620 H   0  0  0  0  0  0  0  0  0  0  0  0
   -1.0880    0.9250   -1.6670 H   0  0  0  0  0  0  0  0  0  0  0  0
   -0.4470    0.4840   -3.9660 H   0  0  0  0  0  0  0  0  0  0  0  0
    2.7030    3.4280   -3.5700 H   0  0  0  0  0  0  0  0  0  0  0  0
    2.4040    0.7740   -5.2180 H   0  0  0  0  0  0  0  0  0  0  0  0
    3.3870    2.3520   -6.3450 H   0  0  0  0  0  0  0  0  0  0  0  0
    0.5250    1.6840   -7.2650 H   0  0  0  0  0  0  0  0  0  0  0  0
   -0.2900    0.7360   -6.0200 H   0  0  0  0  0  0  0  0  0  0  0  0
    1.1120    0.0980   -6.8690 H   0  0  0  0  0  0  0  0  0  0  0  0
    1.5720    3.7400    2.6660 H   0  0  0  0  0  0  0  0  0  0  0  0
    2.3570    1.8000    3.9810 H   0  0  0  0  0  0  0  0  0  0  0  0
    2.2500    3.9660   -6.2660 C   0  0  0  0  0  0  0  0  0  0  0  0
    3.1560    4.5990   -6.8100 O   0  0  0  0  0  0  0  0  0  0  0  0
    1.0290    4.6930   -5.8230 C   0  0  0  0  0  0  0  0  0  0  0  0
   -0.2580    4.1610   -5.8190 C   0  0  0  0  0  0  0  0  0  0  0  0
   -1.3360    4.8820   -5.2930 C   0  0  0  0  0  0  0  0  0  0  0  0
   -1.1700    6.1650   -4.7610 C   0  0  0  0  0  0  0  0  0  0  0  0
   -2.3110    6.9020   -4.1590 C   0  0  0  0  0  0  0  0  0  0  0  0
   -3.3240    6.2900   -3.3660 C   0  0  0  0  0  0  0  0  0  0  0  0
   -4.3870    7.1030   -2.9200 C   0  0  0  0  0  0  0  0  0  0  0  0
   -4.4170    8.4850   -3.0990 C   0  0  0  0  0  0  0  0  0  0  0  0
   -5.4560    9.1390   -2.4990 O   0  0  0  0  0  0  0  0  0  0  0  0
   -5.1610   10.4500   -2.0270 C   0  0  0  0  0  0  0  0  0  0  0  0
   -3.4110    9.0890   -3.8280 C   0  0  0  0  0  0  0  0  0  0  0  0
   -2.3930    8.3010   -4.3730 C   0  0  0  0  0  0  0  0  0  0  0  0
   -3.2140    4.9650   -2.6870 C   0  0  0  0  0  0  0  0  0  0  0  0
   -2.1270    4.7850   -1.8390 C   0  0  0  0  0  0  0  0  0  0  0  0
   -2.1380    3.8260   -0.8420 C   0  0  0  0  0  0  0  0  0  0  0  0
   -3.1390    2.8750   -0.7960 C   0  0  0  0  0  0  0  0  0  0  0  0
   -4.2390    2.9570   -1.6470 C   0  0  0  0  0  0  0  0  0  0  0  0
   -4.2530    4.0100   -2.6050 C   0  0  0  0  0  0  0  0  0  0  0  0
   -5.3560    1.9290   -1.5220 C   0  0  2  0  0  0  0  0  0  0  0  0
   -6.6520    2.3920   -1.9920 N   0  0  0  0  0  0  0  0  0  0  0  0
   -5.5650    1.2010   -0.1720 C   0  0  0  0  0  0  0  0  0  0  0  0
    0.1170    6.7260   -4.8510 C   0  0  0  0  0  0  0  0  0  0  0  0
    1.2000    6.0060   -5.3760 C   0  0  0  0  0  0  0  0  0  0  0  0
   -0.4740    3.1830   -6.2140 H   0  0  0  0  0  0  0  0  0  0  0  0
   -2.3180    4.4130   -5.2990 H   0  0  0  0  0  0  0  0  0  0  0  0
   -5.1500    6.6570   -2.2960 H   0  0  0  0  0  0  0  0  0  0  0  0
   -5.9630   10.7470   -1.3430 H   0  0  0  0  0  0  0  0  0  0  0  0
   -5.1500   11.1630   -2.8570 H   0  0  0  0  0  0  0  0  0  0  0  0
   -4.2190   10.4820   -1.4680 H   0  0  0  0  0  0  0  0  0  0  0  0
   -3.3950   10.1590   -4.0000 H   0  0  0  0  0  0  0  0  0  0  0  0
   -1.6350    8.8090   -4.9670 H   0  0  0  0  0  0  0  0  0  0  0  0
   -1.2820    5.4570   -1.8950 H   0  0  0  0  0  0  0  0  0  0  0  0
   -1.3490    3.8260   -0.0990 H   0  0  0  0  0  0  0  0  0  0  0  0
   -3.0280    2.0770   -0.0700 H   0  0  0  0  0  0  0  0  0  0  0  0
   -5.1150    4.1250   -3.2590 H   0  0  0  0  0  0  0  0  0  0  0  0
   -5.0660    1.1440   -2.2360 H   0  0  0  0  0  0  0  0  0  0  0  0
   -7.1660    1.7310   -2.5620 H   0  0  0  0  0  0  0  0  0  0  0  0
   -6.5250    1.4580    0.2920 H   0  0  0  0  0  0  0  0  0  0  0  0
   -4.7990    1.3860    0.5800 H   0  0  0  0  0  0  0  0  0  0  0  0
   -5.5980    0.1170   -0.3350 H   0  0  0  0  0  0  0  0  0  0  0  0
    0.3210    7.7210   -4.4570 H   0  0  0  0  0  0  0  0  0  0  0  0
    2.1890    6.4630   -5.3800 H   0  0  0  0  0  0  0  0  0  0  0  0
   -7.4650    3.4180   -1.5880 C   0  0  0  0  0  0  0  0  0  0  0  0
   -8.6210    3.4210   -2.0170 O   0  0  0  0  0  0  0  0  0  0  0  0
   -7.0000    4.5800   -0.7770 C   0  0  0  0  0  0  0  0  0  0  0  0
   -6.1760    4.5380    0.3520 C   0  0  0  0  0  0  0  0  0  0  0  0
   -5.7630    5.7240    1.0020 C   0  0  0  0  0  0  0  0  0  0  0  0
   -6.1870    6.9850    0.5670 C   0  0  0  0  0  0  0  0  0  0  0  0
   -5.8640    8.2680    1.2650 C   0  0  0  0  0  0  0  0  0  0  0  0
   -4.5950    8.6910    1.7590 C   0  0  0  0  0  0  0  0  0  0  0  0
   -4.4860    9.9850    2.3300 C   0  0  0  0  0  0  0  0  0  0  0  0
   -5.5630   10.8630    2.4200 C   0  0  0  0  0  0  0  0  0  0  0  0
   -5.2660   12.0870    2.9480 O   0  0  0  0  0  0  0  0  0  0  0  0
   -6.2810   13.0780    2.8490 C   0  0  0  0  0  0  0  0  0  0  0  0
   -6.8030   10.4440    1.9760 C   0  0  0  0  0  0  0  0  0  0  0  0
   -6.9480    9.1700    1.4270 C   0  0  0  0  0  0  0  0  0  0  0  0
   -3.3210    7.9460    1.6560 C   0  0  0  0  0  0  0  0  0  0  0  0
   -2.7580    7.6950    0.4120 C   0  0  0  0  0  0  0  0  0  0  0  0
   -1.5030    7.1090    0.3190 C   0  0  0  0  0  0  0  0  0  0  0  0
   -0.8180    6.6790    1.4510 C   0  0  0  0  0  0  0  0  0  0  0  0
   -1.3110    6.9490    2.7230 C   0  0  0  0  0  0  0  0  0  0  0  0
   -2.5450    7.6270    2.7990 C   0  0  0  0  0  0  0  0  0  0  0  0
   -0.4950    6.5160    3.9390 C   0  0  2  0  0  0  0  0  0  0  0  0
   -1.2470    5.6530    4.8320 N   0  0  0  0  0  0  0  0  0  0  0  0
    0.2300    7.6750    4.6130 C   0  0  0  0  0  0  0  0  0  0  0  0
   -7.0500    6.9960   -0.5530 C   0  0  0  0  0  0  0  0  0  0  0  0
   -7.4540    5.8260   -1.2070 C   0  0  0  0  0  0  0  0  0  0  0  0
   -5.8390    3.5970    0.7630 H   0  0  0  0  0  0  0  0  0  0  0  0
   -5.1150    5.6400    1.8700 H   0  0  0  0  0  0  0  0  0  0  0  0
   -3.5150   10.3380    2.6790 H   0  0  0  0  0  0  0  0  0  0  0  0
   -5.8720   14.0140    3.2390 H   0  0  0  0  0  0  0  0  0  0  0  0
   -7.1490   12.8110    3.4600 H   0  0  0  0  0  0  0  0  0  0  0  0
   -6.5690   13.2470    1.8050 H   0  0  0  0  0  0  0  0  0  0  0  0
   -7.6830   11.0760    2.0310 H   0  0  0  0  0  0  0  0  0  0  0  0
   -7.9470    8.8820    1.0980 H   0  0  0  0  0  0  0  0  0  0  0  0
   -3.2690    7.9990   -0.4940 H   0  0  0  0  0  0  0  0  0  0  0  0
   -1.0470    6.9980   -0.6560 H   0  0  0  0  0  0  0  0  0  0  0  0
    0.1180    6.1480    1.3260 H   0  0  0  0  0  0  0  0  0  0  0  0
   -2.9160    7.9390    3.7710 H   0  0  0  0  0  0  0  0  0  0  0  0
    0.2970    5.8470    3.5740 H   0  0  0  0  0  0  0  0  0  0  0  0
   -1.3660    4.7040    4.5090 H   0  0  0  0  0  0  0  0  0  0  0  0
   -0.4560    8.4260    5.0110 H   0  0  0  0  0  0  0  0  0  0  0  0
    0.8910    8.1780    3.8960 H   0  0  0  0  0  0  0  0  0  0  0  0
    0.8530    7.3100    5.4370 H   0  0  0  0  0  0  0  0  0  0  0  0
   -7.4030    7.9400   -0.9670 H   0  0  0  0  0  0  0  0  0  0  0  0
   -8.1010    5.9020   -2.0800 H   0  0  0  0  0  0  0  0  0  0  0  0
   -3.0820   -8.2640   -0.2900 C   0  0  0  0  0  0  0  0  0  0  0  0
   -2.3340   -7.0700   -0.4810 O   0  0  0  0  0  0  0  0  0  0  0  0
   -3.9680   -8.0380    0.3140 H   0  0  0  0  0  0  0  0  0  0  0  0
   -2.4560   -8.9580    0.2750 H   0  0  0  0  0  0  0  0  0  0  0  0
   -3.3610   -8.7190   -1.2430 H   0  0  0  0  0  0  0  0  0  0  0  0
   -5.5370    4.4060    5.0900 C   0  0  0  0  0  0  0  0  0  0  0  0
   -4.6970    5.5310    5.7170 C   0  0  0  0  0  0  0  0  0  0  0  0
   -5.1610    6.8460    5.0770 C   0  0  0  0  0  0  0  0  0  0  0  0
   -4.9010    5.5400    7.2280 C   0  0  0  0  0  0  0  0  0  0  0  0
   -3.3200    5.1910    5.4020 O   0  0  0  0  0  0  0  0  0  0  0  0
   -2.3230    6.0960    5.5440 C   0  0  0  0  0  0  0  0  0  0  0  0
   -2.4120    7.1880    6.0980 O   0  0  0  0  0  0  0  0  0  0  0  0
   -6.6060    4.5360    5.2870 H   0  0  0  0  0  0  0  0  0  0  0  0
   -5.3990    4.3810    4.0030 H   0  0  0  0  0  0  0  0  0  0  0  0
   -5.2260    3.4240    5.4630 H   0  0  0  0  0  0  0  0  0  0  0  0
   -4.9830    6.8240    4.0000 H   0  0  0  0  0  0  0  0  0  0  0  0
   -4.6370    7.7190    5.4750 H   0  0  0  0  0  0  0  0  0  0  0  0
   -6.2310    7.0140    5.2350 H   0  0  0  0  0  0  0  0  0  0  0  0
   -4.6110    4.5780    7.6630 H   0  0  0  0  0  0  0  0  0  0  0  0
   -4.2840    6.3040    7.7100 H   0  0  0  0  0  0  0  0  0  0  0  0
   -5.9480    5.7360    7.4830 H   0  0  0  0  0  0  0  0  0  0  0  0
  1  3  1  0  0  0  0
  1178  1  0  0  0  0
  2  1  2  0  0  0  0
  3  4  1  0  0  0  0
  4 26  1  0  0  0  0
  4  5  2  0  0  0  0
  5 27  1  0  0  0  0
  6  5  1  0  0  0  0
  6  7  1  0  0  0  0
  7 14  1  0  0  0  0
  8  7  2  0  0  0  0
  8  9  1  0  0  0  0
  9 10  2  0  0  0  0
 10 13  1  0  0  0  0
 10 11  1  0  0  0  0
 12 11  1  0  0  0  0
 12 30  1  0  0  0  0
 13 32  1  0  0  0  0
 14 33  1  0  0  0  0
 14 13  2  0  0  0  0
 15 20  1  0  0  0  0
 15  8  1  0  0  0  0
 16 15  2  0  0  0  0
 17 18  2  0  0  0  0
 17 16  1  0  0  0  0
 18 19  1  0  0  0  0
 19 20  2  0  0  0  0
 19 21  1  0  0  0  0
 20 37  1  0  0  0  0
 21 38  1  1  0  0  0
 21 22  1  0  0  0  0
 22 45  1  0  0  0  0
 22 39  1  0  0  0  0
 23 40  1  0  0  0  0
 23 21  1  0  0  0  0
 24  6  2  0  0  0  0
 25  3  2  0  0  0  0
 25 24  1  0  0  0  0
 28  9  1  0  0  0  0
 29 12  1  0  0  0  0
 31 12  1  0  0  0  0
 34 16  1  0  0  0  0
 35 17  1  0  0  0  0
 36 18  1  0  0  0  0
 41 23  1  0  0  0  0
 42 23  1  0  0  0  0
 43 24  1  0  0  0  0
 44 25  1  0  0  0  0
 45 46  2  0  0  0  0
 47 69  1  0  0  0  0
 47 45  1  0  0  0  0
 48 47  2  0  0  0  0
 49 50  2  0  0  0  0
 49 48  1  0  0  0  0
 50 68  1  0  0  0  0
 51 58  1  0  0  0  0
 51 50  1  0  0  0  0
 52 51  2  0  0  0  0
 53 54  2  0  0  0  0
 53 52  1  0  0  0  0
 54 57  1  0  0  0  0
 55 56  1  0  0  0  0
 55 54  1  0  0  0  0
 56 74  1  0  0  0  0
 56 75  1  0  0  0  0
 57 76  1  0  0  0  0
 57 58  2  0  0  0  0
 58 77  1  0  0  0  0
 59 60  1  0  0  0  0
 59 52  1  0  0  0  0
 60 78  1  0  0  0  0
 61 79  1  0  0  0  0
 61 60  2  0  0  0  0
 62 61  1  0  0  0  0
 63 62  2  0  0  0  0
 63 64  1  0  0  0  0
 64 59  2  0  0  0  0
 65 82  1  1  0  0  0
 65 63  1  0  0  0  0
 66 65  1  0  0  0  0
 67 85  1  0  0  0  0
 67 65  1  0  0  0  0
 68 87  1  0  0  0  0
 68 69  2  0  0  0  0
 69 88  1  0  0  0  0
 70 48  1  0  0  0  0
 71 49  1  0  0  0  0
 72 53  1  0  0  0  0
 73 56  1  0  0  0  0
 80 62  1  0  0  0  0
 81 64  1  0  0  0  0
 83 66  1  0  0  0  0
 84 67  1  0  0  0  0
 86 67  1  0  0  0  0
 89 66  1  0  0  0  0
 89 91  1  0  0  0  0
 90 89  2  0  0  0  0
 91 92  2  0  0  0  0
 91113  1  0  0  0  0
 92 93  1  0  0  0  0
 93 94  2  0  0  0  0
 94 95  1  0  0  0  0
 95 96  1  0  0  0  0
 96 97  2  0  0  0  0
 96103  1  0  0  0  0
 97116  1  0  0  0  0
 98 97  1  0  0  0  0
 98 99  1  0  0  0  0
 99100  1  0  0  0  0
100119  1  0  0  0  0
100117  1  0  0  0  0
101 98  2  0  0  0  0
102 95  2  0  0  0  0
102101  1  0  0  0  0
103108  2  0  0  0  0
103104  1  0  0  0  0
104105  2  0  0  0  0
105106  1  0  0  0  0
105123  1  0  0  0  0
106124  1  0  0  0  0
107109  1  0  0  0  0
107106  2  0  0  0  0
108107  1  0  0  0  0
109126  1  6  0  0  0
109111  1  0  0  0  0
110133  1  0  0  0  0
110109  1  0  0  0  0
111128  1  0  0  0  0
111129  1  0  0  0  0
112 94  1  0  0  0  0
112131  1  0  0  0  0
113112  2  0  0  0  0
114 92  1  0  0  0  0
115 93  1  0  0  0  0
118100  1  0  0  0  0
120101  1  0  0  0  0
121102  1  0  0  0  0
122104  1  0  0  0  0
125108  1  0  0  0  0
127110  1  0  0  0  0
130111  1  0  0  0  0
132113  1  0  0  0  0
133135  1  0  0  0  0
134133  2  0  0  0  0
135136  1  0  0  0  0
136158  1  0  0  0  0
136137  2  0  0  0  0
137159  1  0  0  0  0
138137  1  0  0  0  0
138139  1  0  0  0  0
139146  2  0  0  0  0
139140  1  0  0  0  0
140141  2  0  0  0  0
141142  1  0  0  0  0
141160  1  0  0  0  0
142143  1  0  0  0  0
144143  1  0  0  0  0
144161  1  0  0  0  0
144162  1  0  0  0  0
145164  1  0  0  0  0
145142  2  0  0  0  0
146145  1  0  0  0  0
147140  1  0  0  0  0
147152  1  0  0  0  0
148147  2  0  0  0  0
149148  1  0  0  0  0
149150  2  0  0  0  0
150151  1  0  0  0  0
151152  2  0  0  0  0
151153  1  0  0  0  0
152169  1  0  0  0  0
153170  1  6  0  0  0
153155  1  0  0  0  0
153154  1  0  0  0  0
154187  1  0  0  0  0
155172  1  0  0  0  0
155174  1  0  0  0  0
156138  2  0  0  0  0
157135  2  0  0  0  0
157156  1  0  0  0  0
163144  1  0  0  0  0
165146  1  0  0  0  0
166148  1  0  0  0  0
167149  1  0  0  0  0
168150  1  0  0  0  0
171154  1  0  0  0  0
173155  1  0  0  0  0
175156  1  0  0  0  0
176157  1  0  0  0  0
177180  1  0  0  0  0
177179  1  0  0  0  0
178177  1  0  0  0  0
181177  1  0  0  0  0
182189  1  0  0  0  0
182191  1  0  0  0  0
182183  1  0  0  0  0
183185  1  0  0  0  0
184194  1  0  0  0  0
184193  1  0  0  0  0
184183  1  0  0  0  0
185197  1  0  0  0  0
185195  1  0  0  0  0
185196  1  0  0  0  0
186187  1  0  0  0  0
186183  1  0  0  0  0
187188  2  0  0  0  0
190182  1  0  0  0  0
192184  1  0  0  0  0
M  END
