mop_tetramer.pdb
  -OEChem-09082514093D

197208  0     1  0  0  0  0  0999 V2000
   -2.8880   -6.1580   -1.1150 C   0  0  0  0  0  0  0  0  0  0  0  0
   -3.7890   -6.3320   -1.9180 O   0  0  0  0  0  0  0  0  0  0  0  0
   -2.4850   -4.8350   -0.5870 C   0  0  0  0  0  0  0  0  0  0  0  0
   -1.5140   -4.7240    0.4170 C   0  0  0  0  0  0  0  0  0  0  0  0
   -1.3120   -3.5100    1.0580 C   0  0  0  0  0  0  0  0  0  0  0  0
   -2.0540   -2.3870    0.6810 C   0  0  0  0  0  0  0  0  0  0  0  0
   -1.8370   -1.1100    1.3540 C   0  0  0  0  0  0  0  0  0  0  0  0
   -0.6180   -0.4070    1.2500 C   0  0  0  0  0  0  0  0  0  0  0  0
   -0.5590    0.8680    1.8450 C   0  0  0  0  0  0  0  0  0  0  0  0
   -1.6540    1.4300    2.5050 C   0  0  0  0  0  0  0  0  0  0  0  0
   -1.5480    2.7490    2.8660 O   0  0  0  0  0  0  0  0  0  0  0  0
   -2.8010    3.4340    2.8100 C   0  0  0  0  0  0  0  0  0  0  0  0
   -2.7930    0.6660    2.7170 C   0  0  0  0  0  0  0  0  0  0  0  0
   -2.8910   -0.5890    2.1290 C   0  0  0  0  0  0  0  0  0  0  0  0
    0.5660   -0.9290    0.5170 C   0  0  0  0  0  0  0  0  0  0  0  0
    0.5180   -1.2650   -0.8420 C   0  0  0  0  0  0  0  0  0  0  0  0
    1.6620   -1.6510   -1.5390 C   0  0  0  0  0  0  0  0  0  0  0  0
    2.8800   -1.7590   -0.8750 C   0  0  0  0  0  0  0  0  0  0  0  0
    2.9710   -1.5020    0.5030 C   0  0  0  0  0  0  0  0  0  0  0  0
    1.7920   -1.1120    1.1760 C   0  0  0  0  0  0  0  0  0  0  0  0
    4.2780   -1.7510    1.2480 C   0  0  2  0  0  0  0  0  0  0  0  0
    4.3300   -1.2550    2.6280 N   0  0  0  0  0  0  0  0  0  0  0  0
    5.5910   -1.4630    0.4970 C   0  0  0  0  0  0  0  0  0  0  0  0
   -2.9850   -2.4880   -0.3640 C   0  0  0  0  0  0  0  0  0  0  0  0
   -3.2040   -3.7080   -0.9980 C   0  0  0  0  0  0  0  0  0  0  0  0
   -0.9300   -5.5790    0.7450 H   0  0  0  0  0  0  0  0  0  0  0  0
   -0.5770   -3.4400    1.8560 H   0  0  0  0  0  0  0  0  0  0  0  0
    0.3410    1.4610    1.7320 H   0  0  0  0  0  0  0  0  0  0  0  0
   -2.6110    4.5020    2.7050 H   0  0  0  0  0  0  0  0  0  0  0  0
   -3.3490    3.2560    3.7340 H   0  0  0  0  0  0  0  0  0  0  0  0
   -3.4130    3.1470    1.9540 H   0  0  0  0  0  0  0  0  0  0  0  0
   -3.6310    1.0350    3.2990 H   0  0  0  0  0  0  0  0  0  0  0  0
   -3.8060   -1.1600    2.2630 H   0  0  0  0  0  0  0  0  0  0  0  0
   -0.4170   -1.2050   -1.3900 H   0  0  0  0  0  0  0  0  0  0  0  0
    1.5990   -1.8600   -2.6040 H   0  0  0  0  0  0  0  0  0  0  0  0
    3.7480   -2.0740   -1.4490 H   0  0  0  0  0  0  0  0  0  0  0  0
    1.8120   -0.9500    2.2520 H   0  0  0  0  0  0  0  0  0  0  0  0
    4.2720   -2.8420    1.3900 H   0  0  0  0  0  0  0  0  0  0  0  0
    4.5330   -1.9570    3.3290 H   0  0  0  0  0  0  0  0  0  0  0  0
    6.3010   -0.8960    1.1100 H   0  0  0  0  0  0  0  0  0  0  0  0
    5.4470   -0.9200   -0.4440 H   0  0  0  0  0  0  0  0  0  0  0  0
    6.0960   -2.4020    0.2440 H   0  0  0  0  0  0  0  0  0  0  0  0
   -3.5540   -1.6130   -0.6820 H   0  0  0  0  0  0  0  0  0  0  0  0
   -3.9560   -3.7840   -1.7800 H   0  0  0  0  0  0  0  0  0  0  0  0
    4.1440   -0.0270    3.2170 C   0  0  0  0  0  0  0  0  0  0  0  0
    4.2020    0.0470    4.4430 O   0  0  0  0  0  0  0  0  0  0  0  0
    3.7690    1.1750    2.4390 C   0  0  0  0  0  0  0  0  0  0  0  0
    4.3150    1.4690    1.2010 C   0  0  0  0  0  0  0  0  0  0  0  0
    3.8450    2.5320    0.4440 C   0  0  0  0  0  0  0  0  0  0  0  0
    2.8490    3.3790    0.9440 C   0  0  0  0  0  0  0  0  0  0  0  0
    2.4460    4.5330    0.1390 C   0  0  0  0  0  0  0  0  0  0  0  0
    1.8780    4.4300   -1.1520 C   0  0  0  0  0  0  0  0  0  0  0  0
    1.5640    5.6390   -1.8030 C   0  0  0  0  0  0  0  0  0  0  0  0
    1.7980    6.9000   -1.2500 C   0  0  0  0  0  0  0  0  0  0  0  0
    1.3540    7.9550   -1.9940 O   0  0  0  0  0  0  0  0  0  0  0  0
    1.0420    9.1500   -1.2840 C   0  0  0  0  0  0  0  0  0  0  0  0
    2.4220    6.9880   -0.0200 C   0  0  0  0  0  0  0  0  0  0  0  0
    2.7300    5.8160    0.6700 C   0  0  0  0  0  0  0  0  0  0  0  0
    1.4590    3.1790   -1.8470 C   0  0  0  0  0  0  0  0  0  0  0  0
    0.4670    2.3710   -1.3000 C   0  0  0  0  0  0  0  0  0  0  0  0
   -0.2450    1.4670   -2.0840 C   0  0  0  0  0  0  0  0  0  0  0  0
    0.1060    1.2310   -3.4050 C   0  0  0  0  0  0  0  0  0  0  0  0
    1.1810    1.9190   -3.9750 C   0  0  0  0  0  0  0  0  0  0  0  0
    1.8470    2.8820   -3.1690 C   0  0  0  0  0  0  0  0  0  0  0  0
    1.6560    1.5840   -5.3850 C   0  0  2  0  0  0  0  0  0  0  0  0
    2.4520    2.6320   -6.0210 N   0  0  0  0  0  0  0  0  0  0  0  0
    0.6690    0.9900   -6.4120 C   0  0  0  0  0  0  0  0  0  0  0  0
    2.3650    3.1440    2.2390 C   0  0  0  0  0  0  0  0  0  0  0  0
    2.8080    2.0520    2.9820 C   0  0  0  0  0  0  0  0  0  0  0  0
    5.1280    0.8960    0.7890 H   0  0  0  0  0  0  0  0  0  0  0  0
    4.2670    2.7110   -0.5420 H   0  0  0  0  0  0  0  0  0  0  0  0
    1.0550    5.5850   -2.7570 H   0  0  0  0  0  0  0  0  0  0  0  0
    0.2650    9.6750   -1.8480 H   0  0  0  0  0  0  0  0  0  0  0  0
    1.9250    9.7910   -1.2270 H   0  0  0  0  0  0  0  0  0  0  0  0
    0.6430    8.9650   -0.2820 H   0  0  0  0  0  0  0  0  0  0  0  0
    2.6580    7.9440    0.4350 H   0  0  0  0  0  0  0  0  0  0  0  0
    3.2030    5.9000    1.6480 H   0  0  0  0  0  0  0  0  0  0  0  0
    0.1720    2.5120   -0.2700 H   0  0  0  0  0  0  0  0  0  0  0  0
   -1.0990    0.9450   -1.6540 H   0  0  0  0  0  0  0  0  0  0  0  0
   -0.4600    0.4830   -3.9500 H   0  0  0  0  0  0  0  0  0  0  0  0
    2.6670    3.4570   -3.5920 H   0  0  0  0  0  0  0  0  0  0  0  0
    2.3840    0.7780   -5.2050 H   0  0  0  0  0  0  0  0  0  0  0  0
    3.3560    2.3400   -6.3690 H   0  0  0  0  0  0  0  0  0  0  0  0
    0.4870    1.6670   -7.2540 H   0  0  0  0  0  0  0  0  0  0  0  0
   -0.3030    0.7050   -6.0040 H   0  0  0  0  0  0  0  0  0  0  0  0
    1.1030    0.0900   -6.8630 H   0  0  0  0  0  0  0  0  0  0  0  0
    1.6060    3.8020    2.6720 H   0  0  0  0  0  0  0  0  0  0  0  0
    2.3950    1.8570    3.9690 H   0  0  0  0  0  0  0  0  0  0  0  0
    2.2200    3.9550   -6.3000 C   0  0  0  0  0  0  0  0  0  0  0  0
    3.1150    4.5810   -6.8680 O   0  0  0  0  0  0  0  0  0  0  0  0
    1.0050    4.6870   -5.8490 C   0  0  0  0  0  0  0  0  0  0  0  0
   -0.2820    4.1550   -5.8260 C   0  0  0  0  0  0  0  0  0  0  0  0
   -1.3520    4.8780   -5.2840 C   0  0  0  0  0  0  0  0  0  0  0  0
   -1.1760    6.1640   -4.7590 C   0  0  0  0  0  0  0  0  0  0  0  0
   -2.3070    6.9050   -4.1460 C   0  0  0  0  0  0  0  0  0  0  0  0
   -3.3020    6.3020   -3.3290 C   0  0  0  0  0  0  0  0  0  0  0  0
   -4.3590    7.1170   -2.8710 C   0  0  0  0  0  0  0  0  0  0  0  0
   -4.4020    8.4940   -3.0720 C   0  0  0  0  0  0  0  0  0  0  0  0
   -5.4340    9.1490   -2.4630 O   0  0  0  0  0  0  0  0  0  0  0  0
   -5.1390   10.4670   -2.0100 C   0  0  0  0  0  0  0  0  0  0  0  0
   -3.4130    9.0910   -3.8290 C   0  0  0  0  0  0  0  0  0  0  0  0
   -2.4000    8.3010   -4.3790 C   0  0  0  0  0  0  0  0  0  0  0  0
   -3.1840    4.9840   -2.6420 C   0  0  0  0  0  0  0  0  0  0  0  0
   -2.1200    4.8220   -1.7610 C   0  0  0  0  0  0  0  0  0  0  0  0
   -2.1390    3.8670   -0.7650 C   0  0  0  0  0  0  0  0  0  0  0  0
   -3.1300    2.9020   -0.7430 C   0  0  0  0  0  0  0  0  0  0  0  0
   -4.2080    2.9670   -1.6220 C   0  0  0  0  0  0  0  0  0  0  0  0
   -4.2090    4.0160   -2.5850 C   0  0  0  0  0  0  0  0  0  0  0  0
   -5.3180    1.9320   -1.5240 C   0  0  2  0  0  0  0  0  0  0  0  0
   -6.6110    2.4000   -2.0060 N   0  0  0  0  0  0  0  0  0  0  0  0
   -5.5500    1.1850   -0.1920 C   0  0  0  0  0  0  0  0  0  0  0  0
    0.1090    6.7260   -4.8750 C   0  0  0  0  0  0  0  0  0  0  0  0
    1.1840    6.0020   -5.4110 C   0  0  0  0  0  0  0  0  0  0  0  0
   -0.5040    3.1760   -6.2130 H   0  0  0  0  0  0  0  0  0  0  0  0
   -2.3330    4.4100   -5.2720 H   0  0  0  0  0  0  0  0  0  0  0  0
   -5.1050    6.6750   -2.2240 H   0  0  0  0  0  0  0  0  0  0  0  0
   -5.9330   10.7670   -1.3180 H   0  0  0  0  0  0  0  0  0  0  0  0
   -5.1410   11.1700   -2.8470 H   0  0  0  0  0  0  0  0  0  0  0  0
   -4.1900   10.5080   -1.4630 H   0  0  0  0  0  0  0  0  0  0  0  0
   -3.4060   10.1590   -4.0180 H   0  0  0  0  0  0  0  0  0  0  0  0
   -1.6550    8.8020   -4.9950 H   0  0  0  0  0  0  0  0  0  0  0  0
   -1.2820    5.5170   -1.8010 H   0  0  0  0  0  0  0  0  0  0  0  0
   -1.3640    3.8730   -0.0060 H   0  0  0  0  0  0  0  0  0  0  0  0
   -3.0270    2.1070   -0.0190 H   0  0  0  0  0  0  0  0  0  0  0  0
   -5.0580    4.1190   -3.2610 H   0  0  0  0  0  0  0  0  0  0  0  0
   -5.0160    1.1590   -2.2460 H   0  0  0  0  0  0  0  0  0  0  0  0
   -7.1200    1.7440   -2.5860 H   0  0  0  0  0  0  0  0  0  0  0  0
   -6.4830    1.4890    0.2980 H   0  0  0  0  0  0  0  0  0  0  0  0
   -4.7600    1.2970    0.5490 H   0  0  0  0  0  0  0  0  0  0  0  0
   -5.6550    0.1110   -0.3820 H   0  0  0  0  0  0  0  0  0  0  0  0
    0.3180    7.7220   -4.4890 H   0  0  0  0  0  0  0  0  0  0  0  0
    2.1730    6.4570   -5.4310 H   0  0  0  0  0  0  0  0  0  0  0  0
   -7.4300    3.4260   -1.6060 C   0  0  0  0  0  0  0  0  0  0  0  0
   -8.5770    3.4280   -2.0480 O   0  0  0  0  0  0  0  0  0  0  0  0
   -6.9800    4.5810   -0.7760 C   0  0  0  0  0  0  0  0  0  0  0  0
   -6.1570    4.5440    0.3500 C   0  0  0  0  0  0  0  0  0  0  0  0
   -5.7570    5.7300    1.0120 C   0  0  0  0  0  0  0  0  0  0  0  0
   -6.1980    6.9890    0.5840 C   0  0  0  0  0  0  0  0  0  0  0  0
   -5.8900    8.2690    1.2920 C   0  0  0  0  0  0  0  0  0  0  0  0
   -4.6280    8.7050    1.7900 C   0  0  0  0  0  0  0  0  0  0  0  0
   -4.5340    9.9970    2.3660 C   0  0  0  0  0  0  0  0  0  0  0  0
   -5.6170   10.8680    2.4500 C   0  0  0  0  0  0  0  0  0  0  0  0
   -5.3350   12.0960    2.9740 O   0  0  0  0  0  0  0  0  0  0  0  0
   -6.3450   13.0880    2.8340 C   0  0  0  0  0  0  0  0  0  0  0  0
   -6.8540   10.4360    2.0080 C   0  0  0  0  0  0  0  0  0  0  0  0
   -6.9820    9.1570    1.4590 C   0  0  0  0  0  0  0  0  0  0  0  0
   -3.3470    7.9770    1.6780 C   0  0  0  0  0  0  0  0  0  0  0  0
   -2.7700    7.7830    0.4300 C   0  0  0  0  0  0  0  0  0  0  0  0
   -1.5070    7.2180    0.3230 C   0  0  0  0  0  0  0  0  0  0  0  0
   -0.8250    6.7570    1.4450 C   0  0  0  0  0  0  0  0  0  0  0  0
   -1.3340    6.9700    2.7220 C   0  0  0  0  0  0  0  0  0  0  0  0
   -2.5760    7.6280    2.8150 C   0  0  0  0  0  0  0  0  0  0  0  0
   -0.5190    6.5010    3.9280 C   0  0  2  0  0  0  0  0  0  0  0  0
   -1.2780    5.6190    4.7970 N   0  0  0  0  0  0  0  0  0  0  0  0
    0.2040    7.6410    4.6340 C   0  0  0  0  0  0  0  0  0  0  0  0
   -7.0580    7.0010   -0.5330 C   0  0  0  0  0  0  0  0  0  0  0  0
   -7.4450    5.8290   -1.2020 C   0  0  0  0  0  0  0  0  0  0  0  0
   -5.8050    3.6040    0.7530 H   0  0  0  0  0  0  0  0  0  0  0  0
   -5.1110    5.6480    1.8800 H   0  0  0  0  0  0  0  0  0  0  0  0
   -3.5660   10.3530    2.7200 H   0  0  0  0  0  0  0  0  0  0  0  0
   -5.9400   14.0320    3.2060 H   0  0  0  0  0  0  0  0  0  0  0  0
   -7.2230   12.8370    3.4400 H   0  0  0  0  0  0  0  0  0  0  0  0
   -6.6190   13.2300    1.7830 H   0  0  0  0  0  0  0  0  0  0  0  0
   -7.7400   11.0580    2.0650 H   0  0  0  0  0  0  0  0  0  0  0  0
   -7.9800    8.8610    1.1330 H   0  0  0  0  0  0  0  0  0  0  0  0
   -3.2810    8.1150   -0.4670 H   0  0  0  0  0  0  0  0  0  0  0  0
   -1.0500    7.1440   -0.6550 H   0  0  0  0  0  0  0  0  0  0  0  0
    0.1190    6.2450    1.3080 H   0  0  0  0  0  0  0  0  0  0  0  0
   -2.9570    7.9010    3.7940 H   0  0  0  0  0  0  0  0  0  0  0  0
    0.2690    5.8410    3.5460 H   0  0  0  0  0  0  0  0  0  0  0  0
   -1.4030    4.6810    4.4460 H   0  0  0  0  0  0  0  0  0  0  0  0
   -0.4750    8.3820    5.0490 H   0  0  0  0  0  0  0  0  0  0  0  0
    0.8750    8.1580    3.9360 H   0  0  0  0  0  0  0  0  0  0  0  0
    0.8250    7.2490    5.4530 H   0  0  0  0  0  0  0  0  0  0  0  0
   -7.4190    7.9420   -0.9410 H   0  0  0  0  0  0  0  0  0  0  0  0
   -8.0900    5.9080   -2.0750 H   0  0  0  0  0  0  0  0  0  0  0  0
   -3.0120   -8.2900   -0.1960 C   0  0  0  0  0  0  0  0  0  0  0  0
   -2.2430   -7.1160   -0.4050 O   0  0  0  0  0  0  0  0  0  0  0  0
   -3.8980   -8.0360    0.3940 H   0  0  0  0  0  0  0  0  0  0  0  0
   -2.4030   -8.9850    0.3890 H   0  0  0  0  0  0  0  0  0  0  0  0
   -3.2920   -8.7630   -1.1420 H   0  0  0  0  0  0  0  0  0  0  0  0
   -5.5580    4.3630    5.0800 C   0  0  0  0  0  0  0  0  0  0  0  0
   -4.7140    5.4790    5.7190 C   0  0  0  0  0  0  0  0  0  0  0  0
   -5.1840    6.8020    5.1020 C   0  0  0  0  0  0  0  0  0  0  0  0
   -4.9070    5.4620    7.2320 C   0  0  0  0  0  0  0  0  0  0  0  0
   -3.3410    5.1460    5.3900 O   0  0  0  0  0  0  0  0  0  0  0  0
   -2.3390    6.0480    5.5340 C   0  0  0  0  0  0  0  0  0  0  0  0
   -2.4230    7.1220    6.1070 O   0  0  0  0  0  0  0  0  0  0  0  0
   -6.6260    4.4930    5.2780 H   0  0  0  0  0  0  0  0  0  0  0  0
   -5.4190    4.3490    3.9920 H   0  0  0  0  0  0  0  0  0  0  0  0
   -5.2490    3.3750    5.4410 H   0  0  0  0  0  0  0  0  0  0  0  0
   -5.0120    6.7960    4.0230 H   0  0  0  0  0  0  0  0  0  0  0  0
   -4.6590    7.6690    5.5100 H   0  0  0  0  0  0  0  0  0  0  0  0
   -6.2540    6.9650    5.2670 H   0  0  0  0  0  0  0  0  0  0  0  0
   -4.6150    4.4910    7.6470 H   0  0  0  0  0  0  0  0  0  0  0  0
   -4.2830    6.2150    7.7230 H   0  0  0  0  0  0  0  0  0  0  0  0
   -5.9510    5.6560    7.5000 H   0  0  0  0  0  0  0  0  0  0  0  0
  1  3  1  0  0  0  0
  1178  1  0  0  0  0
  1  2  2  0  0  0  0
  3  4  2  0  0  0  0
  4 26  1  0  0  0  0
  4  5  1  0  0  0  0
  5 27  1  0  0  0  0
  5  6  2  0  0  0  0
  6  7  1  0  0  0  0
  7 14  2  0  0  0  0
  7  8  1  0  0  0  0
  8  9  2  0  0  0  0
  9 10  1  0  0  0  0
 10 13  2  0  0  0  0
 10 11  1  0  0  0  0
 11 12  1  0  0  0  0
 12 30  1  0  0  0  0
 13 32  1  0  0  0  0
 14 33  1  0  0  0  0
 13 14  1  0  0  0  0
 15 20  1  0  0  0  0
  8 15  1  0  0  0  0
 15 16  2  0  0  0  0
 17 18  2  0  0  0  0
 16 17  1  0  0  0  0
 18 19  1  0  0  0  0
 19 20  2  0  0  0  0
 19 21  1  0  0  0  0
 20 37  1  0  0  0  0
 21 38  1  0  0  0  0
 21 22  1  0  0  0  0
 22 45  1  0  0  0  0
 22 39  1  0  0  0  0
 23 40  1  0  0  0  0
 21 23  1  0  0  0  0
  6 24  1  0  0  0  0
  3 25  1  0  0  0  0
 24 25  2  0  0  0  0
  9 28  1  0  0  0  0
 12 29  1  0  0  0  0
 12 31  1  0  0  0  0
 16 34  1  0  0  0  0
 17 35  1  0  0  0  0
 18 36  1  0  0  0  0
 23 41  1  0  0  0  0
 23 42  1  0  0  0  0
 24 43  1  0  0  0  0
 25 44  1  0  0  0  0
 45 46  2  0  0  0  0
 47 69  1  0  0  0  0
 45 47  1  0  0  0  0
 47 48  2  0  0  0  0
 49 50  2  0  0  0  0
 48 49  1  0  0  0  0
 50 68  1  0  0  0  0
 51 58  1  0  0  0  0
 50 51  1  0  0  0  0
 51 52  2  0  0  0  0
 53 54  2  0  0  0  0
 52 53  1  0  0  0  0
 54 57  1  0  0  0  0
 55 56  1  0  0  0  0
 54 55  1  0  0  0  0
 56 74  1  0  0  0  0
 56 75  1  0  0  0  0
 57 76  1  0  0  0  0
 57 58  2  0  0  0  0
 58 77  1  0  0  0  0
 59 60  2  0  0  0  0
 52 59  1  0  0  0  0
 60 78  1  0  0  0  0
 61 79  1  0  0  0  0
 60 61  1  0  0  0  0
 61 62  2  0  0  0  0
 62 63  1  0  0  0  0
 63 64  2  0  0  0  0
 59 64  1  0  0  0  0
 65 82  1  0  0  0  0
 63 65  1  0  0  0  0
 65 66  1  0  0  0  0
 67 85  1  0  0  0  0
 65 67  1  0  0  0  0
 68 87  1  0  0  0  0
 68 69  2  0  0  0  0
 69 88  1  0  0  0  0
 48 70  1  0  0  0  0
 49 71  1  0  0  0  0
 53 72  1  0  0  0  0
 56 73  1  0  0  0  0
 62 80  1  0  0  0  0
 64 81  1  0  0  0  0
 66 83  1  0  0  0  0
 67 84  1  0  0  0  0
 67 86  1  0  0  0  0
 66 89  1  0  0  0  0
 89 91  1  0  0  0  0
 89 90  2  0  0  0  0
 91 92  2  0  0  0  0
 91113  1  0  0  0  0
 92 93  1  0  0  0  0
 93115  1  0  0  0  0
 93 94  2  0  0  0  0
 94 95  1  0  0  0  0
 95 96  1  0  0  0  0
 96 97  2  0  0  0  0
 96103  1  0  0  0  0
 97116  1  0  0  0  0
 97 98  1  0  0  0  0
 98 99  1  0  0  0  0
 99100  1  0  0  0  0
100119  1  0  0  0  0
100117  1  0  0  0  0
 98101  2  0  0  0  0
 95102  2  0  0  0  0
101102  1  0  0  0  0
103108  1  0  0  0  0
103104  2  0  0  0  0
104105  1  0  0  0  0
105106  2  0  0  0  0
105123  1  0  0  0  0
106124  1  0  0  0  0
107109  1  0  0  0  0
106107  1  0  0  0  0
107108  2  0  0  0  0
109126  1  0  0  0  0
109111  1  0  0  0  0
110133  1  0  0  0  0
109110  1  0  0  0  0
111128  1  0  0  0  0
111129  1  0  0  0  0
 94112  1  0  0  0  0
112131  1  0  0  0  0
112113  2  0  0  0  0
 92114  1  0  0  0  0
100118  1  0  0  0  0
101120  1  0  0  0  0
102121  1  0  0  0  0
104122  1  0  0  0  0
108125  1  0  0  0  0
110127  1  0  0  0  0
111130  1  0  0  0  0
113132  1  0  0  0  0
133135  1  0  0  0  0
133134  2  0  0  0  0
135136  2  0  0  0  0
136158  1  0  0  0  0
136137  1  0  0  0  0
137159  1  0  0  0  0
137138  2  0  0  0  0
138139  1  0  0  0  0
139146  2  0  0  0  0
139140  1  0  0  0  0
140141  2  0  0  0  0
141142  1  0  0  0  0
141160  1  0  0  0  0
142143  1  0  0  0  0
143144  1  0  0  0  0
144161  1  0  0  0  0
144162  1  0  0  0  0
145164  1  0  0  0  0
142145  2  0  0  0  0
145146  1  0  0  0  0
140147  1  0  0  0  0
147152  1  0  0  0  0
147148  2  0  0  0  0
148149  1  0  0  0  0
149150  2  0  0  0  0
150151  1  0  0  0  0
151152  2  0  0  0  0
151153  1  0  0  0  0
152169  1  0  0  0  0
153170  1  0  0  0  0
153155  1  0  0  0  0
153154  1  0  0  0  0
154187  1  0  0  0  0
155172  1  0  0  0  0
155174  1  0  0  0  0
138156  1  0  0  0  0
135157  1  0  0  0  0
156157  2  0  0  0  0
144163  1  0  0  0  0
146165  1  0  0  0  0
148166  1  0  0  0  0
149167  1  0  0  0  0
150168  1  0  0  0  0
154171  1  0  0  0  0
155173  1  0  0  0  0
156175  1  0  0  0  0
157176  1  0  0  0  0
177180  1  0  0  0  0
177179  1  0  0  0  0
177178  1  0  0  0  0
177181  1  0  0  0  0
182189  1  0  0  0  0
182191  1  0  0  0  0
182183  1  0  0  0  0
183185  1  0  0  0  0
184194  1  0  0  0  0
184193  1  0  0  0  0
183184  1  0  0  0  0
185197  1  0  0  0  0
185195  1  0  0  0  0
185196  1  0  0  0  0
186187  1  0  0  0  0
183186  1  0  0  0  0
187188  2  0  0  0  0
182190  1  0  0  0  0
184192  1  0  0  0  0
M  END
> <atom.dprop.PartialCharge>
0.648040 -0.538540 -0.138930 -0.079590 -0.127180 0.003510 -0.076230 0.009200 -0.194030 0.124740 -0.328040 0.111010 -0.152200 -0.077040 -0.042050 -0.111950 -0.129290 -0.113480 -0.104080 -0.104840 0.146290 -0.565710 -0.103190 -0.127180 -0.079590 0.150400 0.146460 0.146610 0.045260 0.045260 0.045260 0.152730 0.145920 0.135740 0.133390 0.134830 0.132500 0.089890 0.303710 0.045390 0.045390 0.045390 0.146460 0.150400 0.675530 -0.600340 -0.144350 -0.095930 -0.124300 -0.012810 -0.068210 0.007620 -0.200650 0.124020 -0.321710 0.110960 -0.155800 -0.085040 -0.044890 -0.109460 -0.133960 -0.108340 -0.099550 -0.108620 0.151780 -0.564500 -0.112780 -0.124300 -0.095930 0.145070 0.151480 0.143800 0.045700 0.045700 0.045700 0.155480 0.143560 0.136920 0.132480 0.143450 0.139760 0.088290 0.319240 0.044120 0.044120 0.044120 0.151480 0.145070 0.673160 -0.613560 -0.139610 -0.092840 -0.128750 -0.008700 -0.076760 0.007060 -0.148090 0.126190 -0.326640 0.113680 -0.201780 -0.082480 -0.039270 -0.109290 -0.128510 -0.117270 -0.104920 -0.100620 0.148900 -0.562480 -0.102810 -0.128750 -0.092840 0.147900 0.140720 0.155940 0.045170 0.045170 0.045170 0.142120 0.147760 0.138280 0.133400 0.123620 0.138430 0.086170 0.305830 0.046530 0.046530 0.046530 0.140720 0.147900 0.684190 -0.616630 -0.144030 -0.092550 -0.123410 -0.007070 -0.079240 0.006930 -0.144900 0.128320 -0.325310 0.112510 -0.202450 -0.081830 -0.043710 -0.107700 -0.132470 -0.119130 -0.098680 -0.092000 0.161520 -0.561510 -0.112850 -0.123410 -0.092550 0.143440 0.142240 0.158400 0.046320 0.046320 0.046320 0.141690 0.141500 0.136560 0.133860 0.133580 0.143480 0.090800 0.328570 0.046740 0.046740 0.046740 0.142240 0.143440 0.124820 -0.434210 0.049420 0.049420 0.049420 -0.113990 0.187550 -0.113990 -0.113990 -0.451250 0.752020 -0.598930 0.051240 0.051240 0.051240 0.051240 0.051240 0.051240 0.051240 0.051240 0.051240

$$$$
