mop_tetramer.pdb
 OpenBabel09092515103D

197208  0  0  1  0  0  0  0  0999 V2000
   -2.8290   -5.8410   -1.2570 C   0  0  0  0  0  0  0  0  0  0  0  0
   -3.7750   -6.0340   -2.0040 O   0  0  0  0  0  0  0  0  0  0  0  0
   -2.4570   -4.5220   -0.7080 C   0  0  0  0  0  0  0  0  0  0  0  0
   -1.4940   -4.4220    0.3060 C   0  0  0  0  0  0  0  0  0  0  0  0
   -1.2920   -3.2200    0.9460 C   0  0  0  0  0  0  0  0  0  0  0  0
   -2.0250   -2.0980    0.5530 C   0  0  0  0  0  0  0  0  0  0  0  0
   -1.7590   -0.8410    1.2110 C   0  0  0  0  0  0  0  0  0  0  0  0
   -0.5700   -0.1290    0.9730 C   0  0  0  0  0  0  0  0  0  0  0  0
   -0.5190    1.1590    1.5400 C   0  0  0  0  0  0  0  0  0  0  0  0
   -1.5210    1.6670    2.3900 C   0  0  0  0  0  0  0  0  0  0  0  0
   -1.4420    2.9790    2.7860 O   0  0  0  0  0  0  0  0  0  0  0  0
   -2.7140    3.6350    2.7910 C   0  0  0  0  0  0  0  0  0  0  0  0
   -2.5710    0.8450    2.7650 C   0  0  0  0  0  0  0  0  0  0  0  0
   -2.7180   -0.3750    2.1330 C   0  0  0  0  0  0  0  0  0  0  0  0
    0.6030   -0.6880    0.2090 C   0  0  0  0  0  0  0  0  0  0  0  0
    0.5660   -1.1220   -1.1170 C   0  0  0  0  0  0  0  0  0  0  0  0
    1.7330   -1.5020   -1.8020 C   0  0  0  0  0  0  0  0  0  0  0  0
    2.9760   -1.5150   -1.1630 C   0  0  0  0  0  0  0  0  0  0  0  0
    3.0540   -1.2410    0.2060 C   0  0  0  0  0  0  0  0  0  0  0  0
    1.8400   -0.8680    0.8530 C   0  0  0  0  0  0  0  0  0  0  0  0
    4.3730   -1.4490    0.9770 C   0  0  2  0  0  0  0  0  0  0  0  0
    4.2470   -1.2230    2.4270 N   0  0  0  0  0  0  0  0  0  0  0  0
    5.7110   -0.8680    0.4360 C   0  0  0  0  0  0  0  0  0  0  0  0
   -2.9700   -2.1810   -0.4810 C   0  0  0  0  0  0  0  0  0  0  0  0
   -3.1880   -3.3990   -1.1140 C   0  0  0  0  0  0  0  0  0  0  0  0
   -0.9110   -5.2760    0.6350 H   0  0  0  0  0  0  0  0  0  0  0  0
   -0.5570   -3.1390    1.7430 H   0  0  0  0  0  0  0  0  0  0  0  0
    0.2980    1.8010    1.2490 H   0  0  0  0  0  0  0  0  0  0  0  0
   -2.5900    4.6540    3.1190 H   0  0  0  0  0  0  0  0  0  0  0  0
   -3.4420    3.1500    3.4350 H   0  0  0  0  0  0  0  0  0  0  0  0
   -3.1470    3.7620    1.8120 H   0  0  0  0  0  0  0  0  0  0  0  0
   -3.3170    1.1420    3.4930 H   0  0  0  0  0  0  0  0  0  0  0  0
   -3.5960   -0.9760    2.3630 H   0  0  0  0  0  0  0  0  0  0  0  0
   -0.3770   -1.1530   -1.6550 H   0  0  0  0  0  0  0  0  0  0  0  0
    1.6660   -1.7810   -2.8540 H   0  0  0  0  0  0  0  0  0  0  0  0
    3.8590   -1.7890   -1.7360 H   0  0  0  0  0  0  0  0  0  0  0  0
    1.8190   -0.7210    1.9280 H   0  0  0  0  0  0  0  0  0  0  0  0
    4.5270   -2.5340    0.9000 H   0  0  0  0  0  0  0  0  0  0  0  0
    4.2690   -2.0650    2.9880 H   0  0  0  0  0  0  0  0  0  0  0  0
    6.1520   -0.1220    1.1160 H   0  0  0  0  0  0  0  0  0  0  0  0
    5.6220   -0.4230   -0.5630 H   0  0  0  0  0  0  0  0  0  0  0  0
    6.4910   -1.6330    0.3950 H   0  0  0  0  0  0  0  0  0  0  0  0
   -3.5300   -1.3030   -0.7910 H   0  0  0  0  0  0  0  0  0  0  0  0
   -3.9390   -3.4740   -1.8970 H   0  0  0  0  0  0  0  0  0  0  0  0
    3.8410   -0.1360    3.1810 C   0  0  0  0  0  0  0  0  0  0  0  0
    3.6210   -0.3150    4.3800 O   0  0  0  0  0  0  0  0  0  0  0  0
    3.5020    1.1830    2.5640 C   0  0  0  0  0  0  0  0  0  0  0  0
    3.9920    1.5460    1.3090 C   0  0  0  0  0  0  0  0  0  0  0  0
    3.4510    2.5470    0.5620 C   0  0  0  0  0  0  0  0  0  0  0  0
    2.4370    3.3050    1.0770 C   0  0  0  0  0  0  0  0  0  0  0  0
    2.0270    4.3840    0.2050 C   0  0  0  0  0  0  0  0  0  0  0  0
    1.5360    4.2120   -1.1260 C   0  0  0  0  0  0  0  0  0  0  0  0
    1.2640    5.4400   -1.7580 C   0  0  0  0  0  0  0  0  0  0  0  0
    1.5140    6.7240   -1.2110 C   0  0  0  0  0  0  0  0  0  0  0  0
    1.0420    7.8050   -1.9090 O   0  0  0  0  0  0  0  0  0  0  0  0
    0.6990    8.9700   -1.1460 C   0  0  0  0  0  0  0  0  0  0  0  0
    2.1460    6.8340    0.0080 C   0  0  0  0  0  0  0  0  0  0  0  0
    2.3770    5.6720    0.7160 C   0  0  0  0  0  0  0  0  0  0  0  0
    1.1510    2.9140   -1.8910 C   0  0  0  0  0  0  0  0  0  0  0  0
   -0.0970    2.3350   -1.7010 C   0  0  0  0  0  0  0  0  0  0  0  0
   -0.7400    1.3650   -2.4930 C   0  0  0  0  0  0  0  0  0  0  0  0
   -0.1070    0.8750   -3.6020 C   0  0  0  0  0  0  0  0  0  0  0  0
    1.1010    1.4700   -3.9570 C   0  0  0  0  0  0  0  0  0  0  0  0
    1.7780    2.3830   -3.0280 C   0  0  0  0  0  0  0  0  0  0  0  0
    1.5160    1.3140   -5.4290 C   0  0  2  0  0  0  0  0  0  0  0  0
    2.4630    2.3530   -5.7860 N   0  0  0  0  0  0  0  0  0  0  0  0
    0.4040    1.2370   -6.5260 C   0  0  0  0  0  0  0  0  0  0  0  0
    2.0380    3.1010    2.4180 C   0  0  0  0  0  0  0  0  0  0  0  0
    2.5510    2.0190    3.1530 C   0  0  0  0  0  0  0  0  0  0  0  0
    4.7420    1.0270    0.7920 H   0  0  0  0  0  0  0  0  0  0  0  0
    3.8370    2.7290   -0.4360 H   0  0  0  0  0  0  0  0  0  0  0  0
    0.7380    5.3820   -2.6920 H   0  0  0  0  0  0  0  0  0  0  0  0
   -0.1550    9.4510   -1.6340 H   0  0  0  0  0  0  0  0  0  0  0  0
    1.5380    9.6690   -1.1330 H   0  0  0  0  0  0  0  0  0  0  0  0
    0.3950    8.7620   -0.1150 H   0  0  0  0  0  0  0  0  0  0  0  0
    2.3920    7.7900    0.4560 H   0  0  0  0  0  0  0  0  0  0  0  0
    2.8220    5.7600    1.7080 H   0  0  0  0  0  0  0  0  0  0  0  0
   -0.6460    2.6900   -0.8740 H   0  0  0  0  0  0  0  0  0  0  0  0
   -1.7440    1.0280   -2.2490 H   0  0  0  0  0  0  0  0  0  0  0  0
   -0.5990    0.1220   -4.2130 H   0  0  0  0  0  0  0  0  0  0  0  0
    2.7570    2.7770   -3.2880 H   0  0  0  0  0  0  0  0  0  0  0  0
    2.0480    0.3550   -5.4870 H   0  0  0  0  0  0  0  0  0  0  0  0
    3.4260    2.0480   -5.8350 H   0  0  0  0  0  0  0  0  0  0  0  0
    0.2830    2.1860   -7.0660 H   0  0  0  0  0  0  0  0  0  0  0  0
   -0.5890    0.9530   -6.1600 H   0  0  0  0  0  0  0  0  0  0  0  0
    0.6720    0.5190   -7.3050 H   0  0  0  0  0  0  0  0  0  0  0  0
    1.2780    3.7260    2.8790 H   0  0  0  0  0  0  0  0  0  0  0  0
    2.1630    1.8030    4.1470 H   0  0  0  0  0  0  0  0  0  0  0  0
    2.3860    3.7260   -5.6590 C   0  0  0  0  0  0  0  0  0  0  0  0
    3.4660    4.3220   -5.7090 O   0  0  0  0  0  0  0  0  0  0  0  0
    1.1320    4.5170   -5.3690 C   0  0  0  0  0  0  0  0  0  0  0  0
   -0.1590    4.0090   -5.2240 C   0  0  0  0  0  0  0  0  0  0  0  0
   -1.2500    4.7790   -4.8360 C   0  0  0  0  0  0  0  0  0  0  0  0
   -1.0960    6.1070   -4.4850 C   0  0  0  0  0  0  0  0  0  0  0  0
   -2.2310    6.8400   -3.8800 C   0  0  0  0  0  0  0  0  0  0  0  0
   -3.2750    6.2200   -3.1170 C   0  0  0  0  0  0  0  0  0  0  0  0
   -4.2800    7.0800   -2.6440 C   0  0  0  0  0  0  0  0  0  0  0  0
   -4.2660    8.4740   -2.7800 C   0  0  0  0  0  0  0  0  0  0  0  0
   -5.2550    9.1410   -2.1140 O   0  0  0  0  0  0  0  0  0  0  0  0
   -5.0460   10.5270   -1.8680 C   0  0  0  0  0  0  0  0  0  0  0  0
   -3.2420    9.0620   -3.4880 C   0  0  0  0  0  0  0  0  0  0  0  0
   -2.2600    8.2500   -4.0500 C   0  0  0  0  0  0  0  0  0  0  0  0
   -3.2280    4.8770   -2.4160 C   0  0  0  0  0  0  0  0  0  0  0  0
   -2.2340    4.7570   -1.4720 C   0  0  0  0  0  0  0  0  0  0  0  0
   -2.2960    3.8840   -0.4090 C   0  0  0  0  0  0  0  0  0  0  0  0
   -3.2020    2.8490   -0.4130 C   0  0  0  0  0  0  0  0  0  0  0  0
   -4.2130    2.8230   -1.3490 C   0  0  0  0  0  0  0  0  0  0  0  0
   -4.2090    3.8560   -2.3630 C   0  0  0  0  0  0  0  0  0  0  0  0
   -5.2630    1.7300   -1.1510 C   0  0  2  0  0  0  0  0  0  0  0  0
   -6.4850    2.0660   -1.8220 N   0  0  0  0  0  0  0  0  0  0  0  0
   -5.6250    1.2140    0.2760 C   0  0  0  0  0  0  0  0  0  0  0  0
    0.1850    6.6650   -4.6990 C   0  0  0  0  0  0  0  0  0  0  0  0
    1.2780    5.8850   -5.1310 C   0  0  0  0  0  0  0  0  0  0  0  0
   -0.4110    2.9750   -5.3090 H   0  0  0  0  0  0  0  0  0  0  0  0
   -2.2130    4.2820   -4.7480 H   0  0  0  0  0  0  0  0  0  0  0  0
   -5.0110    6.6450   -1.9870 H   0  0  0  0  0  0  0  0  0  0  0  0
   -5.8440   10.8750   -1.2050 H   0  0  0  0  0  0  0  0  0  0  0  0
   -5.1210   11.0950   -2.7990 H   0  0  0  0  0  0  0  0  0  0  0  0
   -4.0910   10.7140   -1.3640 H   0  0  0  0  0  0  0  0  0  0  0  0
   -3.1640   10.1350   -3.6120 H   0  0  0  0  0  0  0  0  0  0  0  0
   -1.4770    8.7530   -4.6140 H   0  0  0  0  0  0  0  0  0  0  0  0
   -1.3700    5.3890   -1.5530 H   0  0  0  0  0  0  0  0  0  0  0  0
   -1.5170    3.9230    0.3510 H   0  0  0  0  0  0  0  0  0  0  0  0
   -3.1010    2.0610    0.3200 H   0  0  0  0  0  0  0  0  0  0  0  0
   -5.0180    3.8920   -3.0870 H   0  0  0  0  0  0  0  0  0  0  0  0
   -4.8420    0.8570   -1.6660 H   0  0  0  0  0  0  0  0  0  0  0  0
   -6.8220    1.4510   -2.5220 H   0  0  0  0  0  0  0  0  0  0  0  0
   -6.6210    1.5500    0.5940 H   0  0  0  0  0  0  0  0  0  0  0  0
   -4.9300    1.4940    1.0700 H   0  0  0  0  0  0  0  0  0  0  0  0
   -5.6960    0.1190    0.2850 H   0  0  0  0  0  0  0  0  0  0  0  0
    0.4040    7.6930   -4.4190 H   0  0  0  0  0  0  0  0  0  0  0  0
    2.2660    6.3450   -5.1670 H   0  0  0  0  0  0  0  0  0  0  0  0
   -7.2680    3.1910   -1.7330 C   0  0  0  0  0  0  0  0  0  0  0  0
   -8.2460    3.2540   -2.5280 O   0  0  0  0  0  0  0  0  0  0  0  0
   -6.9580    4.3900   -0.8810 C   0  0  0  0  0  0  0  0  0  0  0  0
   -6.2400    4.4100    0.3160 C   0  0  0  0  0  0  0  0  0  0  0  0
   -5.8040    5.6020    0.9260 C   0  0  0  0  0  0  0  0  0  0  0  0
   -6.1610    6.8470    0.4270 C   0  0  0  0  0  0  0  0  0  0  0  0
   -5.7990    8.1390    1.1040 C   0  0  0  0  0  0  0  0  0  0  0  0
   -4.5410    8.5500    1.6730 C   0  0  0  0  0  0  0  0  0  0  0  0
   -4.4210    9.8500    2.2080 C   0  0  0  0  0  0  0  0  0  0  0  0
   -5.4780   10.7510    2.2080 C   0  0  0  0  0  0  0  0  0  0  0  0
   -5.1580   11.9840    2.6980 O   0  0  0  0  0  0  0  0  0  0  0  0
   -6.2070   12.9340    2.7360 C   0  0  0  0  0  0  0  0  0  0  0  0
   -6.7100   10.3600    1.7190 C   0  0  0  0  0  0  0  0  0  0  0  0
   -6.8600    9.0710    1.1850 C   0  0  0  0  0  0  0  0  0  0  0  0
   -3.2460    7.8280    1.6470 C   0  0  0  0  0  0  0  0  0  0  0  0
   -2.6670    7.6220    0.4230 C   0  0  0  0  0  0  0  0  0  0  0  0
   -1.4440    7.0020    0.3440 C   0  0  0  0  0  0  0  0  0  0  0  0
   -0.8180    6.4740    1.4590 C   0  0  0  0  0  0  0  0  0  0  0  0
   -1.2330    6.8210    2.7270 C   0  0  0  0  0  0  0  0  0  0  0  0
   -2.4270    7.5660    2.7900 C   0  0  0  0  0  0  0  0  0  0  0  0
   -0.3640    6.3650    3.9010 C   0  0  2  0  0  0  0  0  0  0  0  0
   -1.0580    5.4970    4.8380 N   0  0  0  0  0  0  0  0  0  0  0  0
    0.4620    7.4800    4.5310 C   0  0  0  0  0  0  0  0  0  0  0  0
   -6.9890    6.8150   -0.7290 C   0  0  0  0  0  0  0  0  0  0  0  0
   -7.3620    5.6400   -1.3880 C   0  0  0  0  0  0  0  0  0  0  0  0
   -5.9390    3.5020    0.8110 H   0  0  0  0  0  0  0  0  0  0  0  0
   -5.1770    5.5360    1.8040 H   0  0  0  0  0  0  0  0  0  0  0  0
   -3.4600   10.2000    2.5710 H   0  0  0  0  0  0  0  0  0  0  0  0
   -5.8010   13.8510    3.1680 H   0  0  0  0  0  0  0  0  0  0  0  0
   -7.0200   12.5850    3.3790 H   0  0  0  0  0  0  0  0  0  0  0  0
   -6.5660   13.1640    1.7270 H   0  0  0  0  0  0  0  0  0  0  0  0
   -7.5680   11.0080    1.6940 H   0  0  0  0  0  0  0  0  0  0  0  0
   -7.8440    8.8040    0.8000 H   0  0  0  0  0  0  0  0  0  0  0  0
   -3.1320    7.9870   -0.4800 H   0  0  0  0  0  0  0  0  0  0  0  0
   -0.9890    6.9240   -0.6280 H   0  0  0  0  0  0  0  0  0  0  0  0
    0.0200    5.8120    1.3240 H   0  0  0  0  0  0  0  0  0  0  0  0
   -2.7300    7.9610    3.7540 H   0  0  0  0  0  0  0  0  0  0  0  0
    0.3890    5.6870    3.4850 H   0  0  0  0  0  0  0  0  0  0  0  0
   -1.1590    4.5430    4.5170 H   0  0  0  0  0  0  0  0  0  0  0  0
   -0.1520    8.2500    4.9990 H   0  0  0  0  0  0  0  0  0  0  0  0
    1.0870    7.9640    3.7690 H   0  0  0  0  0  0  0  0  0  0  0  0
    1.1380    7.0690    5.2900 H   0  0  0  0  0  0  0  0  0  0  0  0
   -7.2890    7.7460   -1.2110 H   0  0  0  0  0  0  0  0  0  0  0  0
   -7.8750    5.6820   -2.3470 H   0  0  0  0  0  0  0  0  0  0  0  0
   -2.9160   -7.7980   -0.0550 C   0  0  0  0  0  0  0  0  0  0  0  0
   -2.0950   -6.7920   -0.6340 O   0  0  0  0  0  0  0  0  0  0  0  0
   -3.6540   -7.3300    0.6080 H   0  0  0  0  0  0  0  0  0  0  0  0
   -2.2740   -8.4370    0.5570 H   0  0  0  0  0  0  0  0  0  0  0  0
   -3.4050   -8.3940   -0.8250 H   0  0  0  0  0  0  0  0  0  0  0  0
   -5.4320    4.4910    4.7200 C   0  0  0  0  0  0  0  0  0  0  0  0
   -4.5700    5.5290    5.4620 C   0  0  0  0  0  0  0  0  0  0  0  0
   -4.8910    6.8800    4.8240 C   0  0  0  0  0  0  0  0  0  0  0  0
   -4.9380    5.5260    6.9390 C   0  0  0  0  0  0  0  0  0  0  0  0
   -3.1910    5.1100    5.2790 O   0  0  0  0  0  0  0  0  0  0  0  0
   -2.1520    5.9460    5.5260 C   0  0  0  0  0  0  0  0  0  0  0  0
   -2.2120    7.0140    6.0990 O   0  0  0  0  0  0  0  0  0  0  0  0
   -6.5000    4.7210    4.7930 H   0  0  0  0  0  0  0  0  0  0  0  0
   -5.1800    4.4770    3.6570 H   0  0  0  0  0  0  0  0  0  0  0  0
   -5.2540    3.4760    5.0870 H   0  0  0  0  0  0  0  0  0  0  0  0
   -4.6900    6.8150    3.7560 H   0  0  0  0  0  0  0  0  0  0  0  0
   -4.2950    7.6990    5.2310 H   0  0  0  0  0  0  0  0  0  0  0  0
   -5.9410    7.1520    4.9350 H   0  0  0  0  0  0  0  0  0  0  0  0
   -4.7770    4.5240    7.3660 H   0  0  0  0  0  0  0  0  0  0  0  0
   -4.2780    6.2060    7.5020 H   0  0  0  0  0  0  0  0  0  0  0  0
   -5.9620    5.8230    7.0940 H   0  0  0  0  0  0  0  0  0  0  0  0
  1  3  1  0  0  0  0
  1178  1  0  0  0  0
  2  1  2  0  0  0  0
  3  4  1  0  0  0  0
  4 26  1  0  0  0  0
  4  5  2  0  0  0  0
  5 27  1  0  0  0  0
  6  5  1  0  0  0  0
  6  7  1  0  0  0  0
  7 14  1  0  0  0  0
  8  7  2  0  0  0  0
  8  9  1  0  0  0  0
  9 10  2  0  0  0  0
 10 13  1  0  0  0  0
 10 11  1  0  0  0  0
 11 12  1  0  0  0  0
 12 29  1  0  0  0  0
 12 30  1  0  0  0  0
 13 32  1  0  0  0  0
 14 33  1  0  0  0  0
 14 13  2  0  0  0  0
 15 20  1  0  0  0  0
 15  8  1  0  0  0  0
 16 15  2  0  0  0  0
 17 18  2  0  0  0  0
 17 16  1  0  0  0  0
 18 19  1  0  0  0  0
 19 20  2  0  0  0  0
 19 21  1  0  0  0  0
 20 37  1  0  0  0  0
 21 38  1  6  0  0  0
 21 22  1  0  0  0  0
 22 39  1  0  0  0  0
 22 45  1  0  0  0  0
 23 21  1  0  0  0  0
 23 40  1  0  0  0  0
 24  6  2  0  0  0  0
 25  3  2  0  0  0  0
 25 24  1  0  0  0  0
 28  9  1  0  0  0  0
 31 12  1  0  0  0  0
 34 16  1  0  0  0  0
 35 17  1  0  0  0  0
 36 18  1  0  0  0  0
 41 23  1  0  0  0  0
 42 23  1  0  0  0  0
 43 24  1  0  0  0  0
 44 25  1  0  0  0  0
 45 46  2  0  0  0  0
 47 69  1  0  0  0  0
 47 45  1  0  0  0  0
 48 47  2  0  0  0  0
 49 50  2  0  0  0  0
 49 48  1  0  0  0  0
 50 68  1  0  0  0  0
 51 58  1  0  0  0  0
 51 50  1  0  0  0  0
 52 51  2  0  0  0  0
 53 54  2  0  0  0  0
 53 52  1  0  0  0  0
 54 57  1  0  0  0  0
 55 54  1  0  0  0  0
 55 56  1  0  0  0  0
 56 74  1  0  0  0  0
 56 75  1  0  0  0  0
 57 76  1  0  0  0  0
 57 58  2  0  0  0  0
 58 77  1  0  0  0  0
 59 60  1  0  0  0  0
 59 52  1  0  0  0  0
 60 78  1  0  0  0  0
 61 79  1  0  0  0  0
 61 60  2  0  0  0  0
 62 61  1  0  0  0  0
 63 62  2  0  0  0  0
 63 64  1  0  0  0  0
 64 59  2  0  0  0  0
 65 82  1  6  0  0  0
 65 63  1  0  0  0  0
 66 89  1  0  0  0  0
 66 65  1  0  0  0  0
 67 85  1  0  0  0  0
 67 65  1  0  0  0  0
 68 87  1  0  0  0  0
 68 69  2  0  0  0  0
 69 88  1  0  0  0  0
 70 48  1  0  0  0  0
 71 49  1  0  0  0  0
 72 53  1  0  0  0  0
 73 56  1  0  0  0  0
 80 62  1  0  0  0  0
 81 64  1  0  0  0  0
 83 66  1  0  0  0  0
 84 67  1  0  0  0  0
 86 67  1  0  0  0  0
 89 91  1  0  0  0  0
 90 89  2  0  0  0  0
 91 92  2  0  0  0  0
 91113  1  0  0  0  0
 92 93  1  0  0  0  0
 93115  1  0  0  0  0
 93 94  2  0  0  0  0
 94 95  1  0  0  0  0
 95 96  1  0  0  0  0
 96 97  2  0  0  0  0
 96103  1  0  0  0  0
 97116  1  0  0  0  0
 98 97  1  0  0  0  0
 98 99  1  0  0  0  0
 99100  1  0  0  0  0
100119  1  0  0  0  0
100117  1  0  0  0  0
101 98  2  0  0  0  0
102 95  2  0  0  0  0
102101  1  0  0  0  0
103108  2  0  0  0  0
103104  1  0  0  0  0
104105  2  0  0  0  0
105123  1  0  0  0  0
106105  1  0  0  0  0
106124  1  0  0  0  0
107109  1  0  0  0  0
107106  2  0  0  0  0
108107  1  0  0  0  0
109126  1  6  0  0  0
109111  1  0  0  0  0
110133  1  0  0  0  0
110109  1  0  0  0  0
111130  1  0  0  0  0
111128  1  0  0  0  0
111129  1  0  0  0  0
112 94  1  0  0  0  0
112131  1  0  0  0  0
113112  2  0  0  0  0
114 92  1  0  0  0  0
118100  1  0  0  0  0
120101  1  0  0  0  0
121102  1  0  0  0  0
122104  1  0  0  0  0
125108  1  0  0  0  0
127110  1  0  0  0  0
132113  1  0  0  0  0
133135  1  0  0  0  0
134133  2  0  0  0  0
135136  1  0  0  0  0
136158  1  0  0  0  0
136137  2  0  0  0  0
137159  1  0  0  0  0
138137  1  0  0  0  0
138139  1  0  0  0  0
139146  2  0  0  0  0
139140  1  0  0  0  0
140141  2  0  0  0  0
141142  1  0  0  0  0
141160  1  0  0  0  0
142143  1  0  0  0  0
143144  1  0  0  0  0
144161  1  0  0  0  0
144162  1  0  0  0  0
145142  2  0  0  0  0
146145  1  0  0  0  0
147140  1  0  0  0  0
147152  1  0  0  0  0
148147  2  0  0  0  0
149148  1  0  0  0  0
149150  2  0  0  0  0
150151  1  0  0  0  0
151152  2  0  0  0  0
151153  1  0  0  0  0
152169  1  0  0  0  0
153170  1  6  0  0  0
153155  1  0  0  0  0
153154  1  0  0  0  0
154187  1  0  0  0  0
155172  1  0  0  0  0
155174  1  0  0  0  0
156138  2  0  0  0  0
157135  2  0  0  0  0
157156  1  0  0  0  0
163144  1  0  0  0  0
164145  1  0  0  0  0
165146  1  0  0  0  0
166148  1  0  0  0  0
167149  1  0  0  0  0
168150  1  0  0  0  0
171154  1  0  0  0  0
173155  1  0  0  0  0
175156  1  0  0  0  0
176157  1  0  0  0  0
177180  1  0  0  0  0
177179  1  0  0  0  0
178177  1  0  0  0  0
181177  1  0  0  0  0
182189  1  0  0  0  0
182191  1  0  0  0  0
182183  1  0  0  0  0
183185  1  0  0  0  0
184194  1  0  0  0  0
184193  1  0  0  0  0
184183  1  0  0  0  0
185197  1  0  0  0  0
185195  1  0  0  0  0
185196  1  0  0  0  0
186183  1  0  0  0  0
186187  1  0  0  0  0
187188  2  0  0  0  0
190182  1  0  0  0  0
192184  1  0  0  0  0
M  END
