pom_tetramer.pdb
 OpenBabel06252519093D

197208  0  0  1  0  0  0  0  0999 V2000
   -3.1640   -5.4270   -0.9100 C   0  0  0  0  0  0  0  0  0  0  0  0
   -2.1530   -4.5360   -1.3760 O   0  0  0  0  0  0  0  0  0  0  0  0
   -2.1870   -3.2420   -0.9350 C   0  0  0  0  0  0  0  0  0  0  0  0
   -3.2350   -2.6450   -0.2560 C   0  0  0  0  0  0  0  0  0  0  0  0
   -3.1270   -1.3110    0.1390 C   0  0  0  0  0  0  0  0  0  0  0  0
   -1.9660   -0.5430   -0.1170 C   0  0  0  0  0  0  0  0  0  0  0  0
   -2.0320    0.8840    0.2530 C   0  0  0  0  0  0  0  0  0  0  0  0
   -1.4340    1.3950    1.4080 C   0  0  0  0  0  0  0  0  0  0  0  0
   -1.3810    2.7650    1.6590 C   0  0  0  0  0  0  0  0  0  0  0  0
   -2.0070    3.6480    0.7870 C   0  0  0  0  0  0  0  0  0  0  0  0
   -2.7520    3.1580   -0.2910 C   0  0  0  0  0  0  0  0  0  0  0  0
   -3.5430    4.0440   -1.1920 C   0  0  0  0  0  0  0  0  0  0  0  0
   -4.0500    3.6320   -2.2250 O   0  0  0  0  0  0  0  0  0  0  0  0
   -2.7410    1.7810   -0.5620 C   0  0  0  0  0  0  0  0  0  0  0  0
   -0.8500   -1.1600   -0.7650 C   0  0  0  0  0  0  0  0  0  0  0  0
    0.4980   -0.5230   -0.9580 C   0  0  0  0  0  0  0  0  0  0  0  0
    1.6800   -1.2200   -0.6230 C   0  0  0  0  0  0  0  0  0  0  0  0
    2.9490   -0.6030   -0.6010 C   0  0  0  0  0  0  0  0  0  0  0  0
    3.0890    0.7520   -0.9180 C   0  0  0  0  0  0  0  0  0  0  0  0
    4.3710    1.5490   -0.6380 C   0  0  2  0  0  0  0  0  0  0  0  0
    5.6750    0.7630   -0.7840 C   0  0  0  0  0  0  0  0  0  0  0  0
    4.2670    2.2690    0.6540 N   0  0  0  0  0  0  0  0  0  0  0  0
    1.9390    1.4200   -1.3780 C   0  0  0  0  0  0  0  0  0  0  0  0
    0.6760    0.7900   -1.4070 C   0  0  0  0  0  0  0  0  0  0  0  0
   -1.0230   -2.4990   -1.1910 C   0  0  0  0  0  0  0  0  0  0  0  0
   -2.7820   -6.4480   -1.0150 H   0  0  0  0  0  0  0  0  0  0  0  0
   -3.4130   -5.2850    0.1460 H   0  0  0  0  0  0  0  0  0  0  0  0
   -4.0630   -5.3300   -1.5240 H   0  0  0  0  0  0  0  0  0  0  0  0
   -4.1560   -3.1770   -0.0350 H   0  0  0  0  0  0  0  0  0  0  0  0
   -3.9790   -0.8560    0.6460 H   0  0  0  0  0  0  0  0  0  0  0  0
   -0.9900    0.7300    2.1330 H   0  0  0  0  0  0  0  0  0  0  0  0
   -0.8500    3.1420    2.5290 H   0  0  0  0  0  0  0  0  0  0  0  0
   -1.9160    4.7120    0.9760 H   0  0  0  0  0  0  0  0  0  0  0  0
   -3.2790    1.4000   -1.4310 H   0  0  0  0  0  0  0  0  0  0  0  0
    1.6270   -2.2480   -0.2730 H   0  0  0  0  0  0  0  0  0  0  0  0
    3.7940   -1.1810   -0.2300 H   0  0  0  0  0  0  0  0  0  0  0  0
    4.4090    2.3480   -1.3910 H   0  0  0  0  0  0  0  0  0  0  0  0
    6.5380    1.4310   -0.6750 H   0  0  0  0  0  0  0  0  0  0  0  0
    5.7370    0.2870   -1.7680 H   0  0  0  0  0  0  0  0  0  0  0  0
    5.7780   -0.0220   -0.0270 H   0  0  0  0  0  0  0  0  0  0  0  0
    3.3780    2.7420    0.7110 H   0  0  0  0  0  0  0  0  0  0  0  0
    1.9970    2.4670   -1.6700 H   0  0  0  0  0  0  0  0  0  0  0  0
   -0.1750    1.3690   -1.7560 H   0  0  0  0  0  0  0  0  0  0  0  0
   -0.2170   -3.0030   -1.7230 H   0  0  0  0  0  0  0  0  0  0  0  0
    5.1600   -5.3160    8.4160 C   0  0  0  0  0  0  0  0  0  0  0  0
    4.1890   -4.2740    8.4960 O   0  0  0  0  0  0  0  0  0  0  0  0
    3.9930   -3.5040    7.3810 C   0  0  0  0  0  0  0  0  0  0  0  0
    4.7740   -3.5350    6.2360 C   0  0  0  0  0  0  0  0  0  0  0  0
    4.4590   -2.6980    5.1700 C   0  0  0  0  0  0  0  0  0  0  0  0
    3.3440   -1.8320    5.2160 C   0  0  0  0  0  0  0  0  0  0  0  0
    3.1020   -0.9960    4.0350 C   0  0  0  0  0  0  0  0  0  0  0  0
    1.9380   -1.1870    3.3060 C   0  0  0  0  0  0  0  0  0  0  0  0
    1.5030   -0.2250    2.4230 C   0  0  0  0  0  0  0  0  0  0  0  0
    2.2880    0.8770    2.1420 C   0  0  0  0  0  0  0  0  0  0  0  0
    3.6070    0.8930    2.5890 C   0  0  0  0  0  0  0  0  0  0  0  0
    4.6530    1.6560    1.8350 C   0  0  0  0  0  0  0  0  0  0  0  0
    5.8200    1.6280    2.2080 O   0  0  0  0  0  0  0  0  0  0  0  0
    3.9890    0.0030    3.6030 C   0  0  0  0  0  0  0  0  0  0  0  0
    2.4780   -1.8300    6.3610 C   0  0  0  0  0  0  0  0  0  0  0  0
    1.1480   -1.1050    6.4390 C   0  0  0  0  0  0  0  0  0  0  0  0
   -0.0080   -1.7580    6.9150 C   0  0  0  0  0  0  0  0  0  0  0  0
   -1.3090   -1.2180    6.7760 C   0  0  0  0  0  0  0  0  0  0  0  0
   -1.5170    0.0030    6.1260 C   0  0  0  0  0  0  0  0  0  0  0  0
   -2.9120    0.4970    5.7000 C   0  0  2  0  0  0  0  0  0  0  0  0
   -4.0150    0.2480    6.7300 C   0  0  0  0  0  0  0  0  0  0  0  0
   -3.2700    0.0430    4.3420 N   0  0  0  0  0  0  0  0  0  0  0  0
   -0.3660    0.7220    5.7630 C   0  0  0  0  0  0  0  0  0  0  0  0
    0.9340    0.1910    5.9470 C   0  0  0  0  0  0  0  0  0  0  0  0
    2.8730   -2.6540    7.4390 C   0  0  0  0  0  0  0  0  0  0  0  0
    4.9660   -6.0140    9.2370 H   0  0  0  0  0  0  0  0  0  0  0  0
    5.0980   -5.8900    7.4860 H   0  0  0  0  0  0  0  0  0  0  0  0
    6.1660   -4.9070    8.5400 H   0  0  0  0  0  0  0  0  0  0  0  0
    5.6350   -4.1890    6.1370 H   0  0  0  0  0  0  0  0  0  0  0  0
    5.0840   -2.7380    4.2780 H   0  0  0  0  0  0  0  0  0  0  0  0
    1.3260   -2.0570    3.4680 H   0  0  0  0  0  0  0  0  0  0  0  0
    0.5780   -0.3930    1.8960 H   0  0  0  0  0  0  0  0  0  0  0  0
    1.9010    1.6030    1.4390 H   0  0  0  0  0  0  0  0  0  0  0  0
    4.9880    0.0700    4.0320 H   0  0  0  0  0  0  0  0  0  0  0  0
    0.0670   -2.7710    7.3040 H   0  0  0  0  0  0  0  0  0  0  0  0
   -2.1550   -1.8340    7.0750 H   0  0  0  0  0  0  0  0  0  0  0  0
   -2.8330    1.5870    5.5980 H   0  0  0  0  0  0  0  0  0  0  0  0
   -4.9410    0.7500    6.4260 H   0  0  0  0  0  0  0  0  0  0  0  0
   -3.7270    0.6370    7.7130 H   0  0  0  0  0  0  0  0  0  0  0  0
   -4.2460   -0.8160    6.8470 H   0  0  0  0  0  0  0  0  0  0  0  0
   -2.5130    0.2140    3.6930 H   0  0  0  0  0  0  0  0  0  0  0  0
   -0.4580    1.6950    5.2840 H   0  0  0  0  0  0  0  0  0  0  0  0
    1.7800    0.7940    5.6220 H   0  0  0  0  0  0  0  0  0  0  0  0
    2.2750   -2.6740    8.3490 H   0  0  0  0  0  0  0  0  0  0  0  0
   -5.0060  -10.8310    4.6480 C   0  0  0  0  0  0  0  0  0  0  0  0
   -3.9960  -10.2840    3.8110 O   0  0  0  0  0  0  0  0  0  0  0  0
   -3.8270   -8.9270    3.8440 C   0  0  0  0  0  0  0  0  0  0  0  0
   -4.5340   -8.0360    4.6370 C   0  0  0  0  0  0  0  0  0  0  0  0
   -4.2050   -6.6830    4.6160 C   0  0  0  0  0  0  0  0  0  0  0  0
   -3.1660   -6.1850    3.8010 C   0  0  0  0  0  0  0  0  0  0  0  0
   -2.7950   -4.7750    4.0130 C   0  0  0  0  0  0  0  0  0  0  0  0
   -1.5200   -4.5230    4.4970 C   0  0  0  0  0  0  0  0  0  0  0  0
   -0.9190   -3.3060    4.2810 C   0  0  0  0  0  0  0  0  0  0  0  0
   -1.6780   -2.2370    3.8440 C   0  0  0  0  0  0  0  0  0  0  0  0
   -3.0670   -2.3630    3.8260 C   0  0  0  0  0  0  0  0  0  0  0  0
   -3.9230   -1.1770    4.1190 C   0  0  0  0  0  0  0  0  0  0  0  0
   -5.1300   -1.2960    4.2570 O   0  0  0  0  0  0  0  0  0  0  0  0
   -3.6210   -3.6580    3.7940 C   0  0  0  0  0  0  0  0  0  0  0  0
   -2.4340   -7.0850    2.9330 C   0  0  0  0  0  0  0  0  0  0  0  0
   -1.2610   -6.7140    2.0230 C   0  0  0  0  0  0  0  0  0  0  0  0
   -0.2730   -7.6440    1.6160 C   0  0  0  0  0  0  0  0  0  0  0  0
    0.8970   -7.2760    0.8980 C   0  0  0  0  0  0  0  0  0  0  0  0
    1.1570   -5.9430    0.5740 C   0  0  0  0  0  0  0  0  0  0  0  0
    2.4840   -5.4260    0.0120 C   0  0  2  0  0  0  0  0  0  0  0  0
    3.2670   -6.4150   -0.8510 C   0  0  0  0  0  0  0  0  0  0  0  0
    3.3210   -4.7910    1.0580 N   0  0  0  0  0  0  0  0  0  0  0  0
    0.1550   -5.0270    0.9020 C   0  0  0  0  0  0  0  0  0  0  0  0
   -1.0260   -5.4120    1.5670 C   0  0  0  0  0  0  0  0  0  0  0  0
   -2.8170   -8.4470    2.9980 C   0  0  0  0  0  0  0  0  0  0  0  0
   -5.0130  -11.9150    4.4990 H   0  0  0  0  0  0  0  0  0  0  0  0
   -4.7920  -10.6480    5.7050 H   0  0  0  0  0  0  0  0  0  0  0  0
   -5.9930  -10.4460    4.3750 H   0  0  0  0  0  0  0  0  0  0  0  0
   -5.3140   -8.3590    5.3180 H   0  0  0  0  0  0  0  0  0  0  0  0
   -4.7270   -6.0170    5.3030 H   0  0  0  0  0  0  0  0  0  0  0  0
   -0.9680   -5.3130    4.9800 H   0  0  0  0  0  0  0  0  0  0  0  0
    0.1240   -3.1990    4.5380 H   0  0  0  0  0  0  0  0  0  0  0  0
   -1.1800   -1.2840    3.7300 H   0  0  0  0  0  0  0  0  0  0  0  0
   -4.6910   -3.7870    3.6500 H   0  0  0  0  0  0  0  0  0  0  0  0
   -0.3300   -8.6860    1.9240 H   0  0  0  0  0  0  0  0  0  0  0  0
    1.6360   -8.0500    0.6960 H   0  0  0  0  0  0  0  0  0  0  0  0
    2.2220   -4.5950   -0.6580 H   0  0  0  0  0  0  0  0  0  0  0  0
    4.1250   -5.9150   -1.3150 H   0  0  0  0  0  0  0  0  0  0  0  0
    2.6370   -6.8160   -1.6520 H   0  0  0  0  0  0  0  0  0  0  0  0
    3.6550   -7.2570   -0.2700 H   0  0  0  0  0  0  0  0  0  0  0  0
    2.7790   -4.1050    1.5590 H   0  0  0  0  0  0  0  0  0  0  0  0
    0.2890   -3.9720    0.6830 H   0  0  0  0  0  0  0  0  0  0  0  0
   -1.7530   -4.6260    1.7380 H   0  0  0  0  0  0  0  0  0  0  0  0
   -2.3140   -9.1930    2.3880 H   0  0  0  0  0  0  0  0  0  0  0  0
    5.8110  -13.3080    7.4250 C   0  0  0  0  0  0  0  0  0  0  0  0
    5.0600  -12.2220    7.9500 O   0  0  0  0  0  0  0  0  0  0  0  0
    4.6880  -11.2470    7.0660 C   0  0  0  0  0  0  0  0  0  0  0  0
    4.9640  -11.2280    5.7060 C   0  0  0  0  0  0  0  0  0  0  0  0
    4.4930  -10.1790    4.9200 C   0  0  0  0  0  0  0  0  0  0  0  0
    3.7240   -9.1360    5.4710 C   0  0  0  0  0  0  0  0  0  0  0  0
    3.1860   -8.1250    4.5470 C   0  0  0  0  0  0  0  0  0  0  0  0
    1.8190   -7.8650    4.5850 C   0  0  0  0  0  0  0  0  0  0  0  0
    1.3550   -6.6520    4.1470 C   0  0  0  0  0  0  0  0  0  0  0  0
    2.1800   -5.7590    3.4760 C   0  0  0  0  0  0  0  0  0  0  0  0
    3.4370   -6.1970    3.0810 C   0  0  0  0  0  0  0  0  0  0  0  0
    4.1060   -5.5790    1.8980 C   0  0  0  0  0  0  0  0  0  0  0  0
    5.2780   -5.8330    1.6440 O   0  0  0  0  0  0  0  0  0  0  0  0
    3.9790   -7.3320    3.6890 C   0  0  0  0  0  0  0  0  0  0  0  0
    3.4300   -9.1300    6.8840 C   0  0  0  0  0  0  0  0  0  0  0  0
    2.5650   -8.1120    7.5960 C   0  0  0  0  0  0  0  0  0  0  0  0
    1.7420   -8.4580    8.6800 C   0  0  0  0  0  0  0  0  0  0  0  0
    0.8450   -7.5440    9.2650 C   0  0  0  0  0  0  0  0  0  0  0  0
    0.6390   -6.2750    8.7240 C   0  0  0  0  0  0  0  0  0  0  0  0
   -0.4340   -5.3170    9.2060 C   0  0  2  0  0  0  0  0  0  0  0  0
   -0.6530   -5.2980   10.7200 C   0  0  0  0  0  0  0  0  0  0  0  0
   -1.7010   -5.4260    8.4860 N   0  0  0  0  0  0  0  0  0  0  0  0
    1.4710   -5.9060    7.6730 C   0  0  0  0  0  0  0  0  0  0  0  0
    2.4640   -6.7740    7.1930 C   0  0  0  0  0  0  0  0  0  0  0  0
    3.9510  -10.2040    7.6370 C   0  0  0  0  0  0  0  0  0  0  0  0
    6.0160  -13.9970    8.2490 H   0  0  0  0  0  0  0  0  0  0  0  0
    5.2410  -13.8550    6.6670 H   0  0  0  0  0  0  0  0  0  0  0  0
    6.7700  -12.9620    7.0290 H   0  0  0  0  0  0  0  0  0  0  0  0
    5.5300  -12.0140    5.2190 H   0  0  0  0  0  0  0  0  0  0  0  0
    4.6990  -10.1960    3.8510 H   0  0  0  0  0  0  0  0  0  0  0  0
    1.1370   -8.5180    5.1250 H   0  0  0  0  0  0  0  0  0  0  0  0
    0.3230   -6.4310    4.3050 H   0  0  0  0  0  0  0  0  0  0  0  0
    1.7570   -4.8160    3.1540 H   0  0  0  0  0  0  0  0  0  0  0  0
    5.0190   -7.6020    3.4990 H   0  0  0  0  0  0  0  0  0  0  0  0
    1.7430   -9.4700    9.0770 H   0  0  0  0  0  0  0  0  0  0  0  0
    0.2490   -7.8780   10.1100 H   0  0  0  0  0  0  0  0  0  0  0  0
   -0.0780   -4.3080    8.9630 H   0  0  0  0  0  0  0  0  0  0  0  0
   -1.3240   -4.4750   10.9940 H   0  0  0  0  0  0  0  0  0  0  0  0
    0.2940   -5.1470   11.2490 H   0  0  0  0  0  0  0  0  0  0  0  0
   -1.1090   -6.2220   11.0860 H   0  0  0  0  0  0  0  0  0  0  0  0
   -2.1920   -4.5630    8.2920 H   0  0  0  0  0  0  0  0  0  0  0  0
    1.3650   -4.9350    7.2020 H   0  0  0  0  0  0  0  0  0  0  0  0
    3.1190   -6.3780    6.4230 H   0  0  0  0  0  0  0  0  0  0  0  0
    3.7760  -10.2530    8.7100 H   0  0  0  0  0  0  0  0  0  0  0  0
   -4.2970    5.7060    0.3290 C   0  0  0  0  0  0  0  0  0  0  0  0
   -3.5510    5.3550   -0.8440 O   0  0  0  0  0  0  0  0  0  0  0  0
   -4.7260    4.8380    0.8380 H   0  0  0  0  0  0  0  0  0  0  0  0
   -5.1010    6.3870    0.0390 H   0  0  0  0  0  0  0  0  0  0  0  0
   -3.6290    6.2400    1.0120 H   0  0  0  0  0  0  0  0  0  0  0  0
   -1.6170   -9.9840    9.0290 C   0  0  0  0  0  0  0  0  0  0  0  0
   -2.6960   -8.8890    9.0120 C   0  0  0  0  0  0  0  0  0  0  0  0
   -3.6480   -9.2020    7.8610 C   0  0  0  0  0  0  0  0  0  0  0  0
   -3.4140   -8.8590   10.3600 C   0  0  0  0  0  0  0  0  0  0  0  0
   -1.9740   -7.6450    8.8410 O   0  0  0  0  0  0  0  0  0  0  0  0
   -2.5660   -6.4830    8.5060 C   0  0  0  0  0  0  0  0  0  0  0  0
   -3.7500   -6.3270    8.2420 O   0  0  0  0  0  0  0  0  0  0  0  0
   -2.0520  -10.9860    9.1040 H   0  0  0  0  0  0  0  0  0  0  0  0
   -1.0100   -9.9400    8.1160 H   0  0  0  0  0  0  0  0  0  0  0  0
   -0.9300   -9.8530    9.8710 H   0  0  0  0  0  0  0  0  0  0  0  0
   -3.1310   -9.0900    6.9040 H   0  0  0  0  0  0  0  0  0  0  0  0
   -4.5180   -8.5400    7.8480 H   0  0  0  0  0  0  0  0  0  0  0  0
   -4.0290  -10.2250    7.9350 H   0  0  0  0  0  0  0  0  0  0  0  0
   -2.7200   -8.5770   11.1600 H   0  0  0  0  0  0  0  0  0  0  0  0
   -4.2140   -8.1120   10.3640 H   0  0  0  0  0  0  0  0  0  0  0  0
   -3.8490   -9.8330   10.6040 H   0  0  0  0  0  0  0  0  0  0  0  0
  1 27  1  0  0  0  0
  2  3  1  0  0  0  0
  2  1  1  0  0  0  0
  3  4  1  0  0  0  0
  4 29  1  0  0  0  0
  4  5  2  0  0  0  0
  5 30  1  0  0  0  0
  6  5  1  0  0  0  0
  6  7  1  0  0  0  0
  7  8  1  0  0  0  0
  8  9  2  0  0  0  0
  8 31  1  0  0  0  0
  9 32  1  0  0  0  0
 10 33  1  0  0  0  0
 10  9  1  0  0  0  0
 11 10  2  0  0  0  0
 12178  1  0  0  0  0
 12 11  1  0  0  0  0
 13 12  2  0  0  0  0
 14 11  1  0  0  0  0
 14  7  2  0  0  0  0
 15  6  2  0  0  0  0
 16 15  1  0  0  0  0
 16 17  1  0  0  0  0
 17 18  2  0  0  0  0
 17 35  1  0  0  0  0
 18 36  1  0  0  0  0
 19 20  1  0  0  0  0
 19 18  1  0  0  0  0
 20 37  1  6  0  0  0
 20 22  1  0  0  0  0
 21 38  1  0  0  0  0
 21 20  1  0  0  0  0
 21 40  1  0  0  0  0
 22 41  1  0  0  0  0
 22 56  1  0  0  0  0
 23 19  2  0  0  0  0
 24 23  1  0  0  0  0
 24 16  2  0  0  0  0
 25  3  2  0  0  0  0
 25 15  1  0  0  0  0
 26  1  1  0  0  0  0
 28  1  1  0  0  0  0
 34 14  1  0  0  0  0
 39 21  1  0  0  0  0
 42 23  1  0  0  0  0
 43 24  1  0  0  0  0
 44 25  1  0  0  0  0
 45 46  1  0  0  0  0
 45 72  1  0  0  0  0
 45 70  1  0  0  0  0
 47 69  1  0  0  0  0
 47 46  1  0  0  0  0
 48 47  2  0  0  0  0
 49 50  2  0  0  0  0
 49 48  1  0  0  0  0
 50 59  1  0  0  0  0
 51 50  1  0  0  0  0
 52 75  1  0  0  0  0
 52 51  2  0  0  0  0
 53 52  1  0  0  0  0
 54 53  2  0  0  0  0
 54 55  1  0  0  0  0
 55 58  2  0  0  0  0
 56 57  2  0  0  0  0
 56 55  1  0  0  0  0
 58 78  1  0  0  0  0
 58 51  1  0  0  0  0
 59 60  1  0  0  0  0
 59 69  2  0  0  0  0
 60 61  1  0  0  0  0
 61 79  1  0  0  0  0
 62 61  2  0  0  0  0
 62 80  1  0  0  0  0
 63 62  1  0  0  0  0
 64 81  1  6  0  0  0
 64 63  1  0  0  0  0
 64 65  1  0  0  0  0
 65 84  1  0  0  0  0
 65 83  1  0  0  0  0
 66 64  1  0  0  0  0
 67 68  1  0  0  0  0
 67 63  2  0  0  0  0
 68 60  2  0  0  0  0
 69 88  1  0  0  0  0
 71 45  1  0  0  0  0
 73 48  1  0  0  0  0
 74 49  1  0  0  0  0
 76 53  1  0  0  0  0
 77 54  1  0  0  0  0
 82 65  1  0  0  0  0
 85 66  1  0  0  0  0
 86 67  1  0  0  0  0
 87 68  1  0  0  0  0
 89115  1  0  0  0  0
 90 91  1  0  0  0  0
 90 89  1  0  0  0  0
 91 92  1  0  0  0  0
 92117  1  0  0  0  0
 93 92  2  0  0  0  0
 93118  1  0  0  0  0
 94 95  1  0  0  0  0
 94 93  1  0  0  0  0
 95 96  1  0  0  0  0
 96119  1  0  0  0  0
 97 96  2  0  0  0  0
 97120  1  0  0  0  0
 98 97  1  0  0  0  0
 99 98  2  0  0  0  0
 99100  1  0  0  0  0
100101  2  0  0  0  0
100 66  1  0  0  0  0
102 99  1  0  0  0  0
102 95  2  0  0  0  0
103113  1  0  0  0  0
103 94  2  0  0  0  0
104103  1  0  0  0  0
105123  1  0  0  0  0
105104  1  0  0  0  0
106105  2  0  0  0  0
107106  1  0  0  0  0
107111  2  0  0  0  0
108125  1  6  0  0  0
108107  1  0  0  0  0
108110  1  0  0  0  0
109128  1  0  0  0  0
109108  1  0  0  0  0
110129  1  0  0  0  0
110144  1  0  0  0  0
111112  1  0  0  0  0
112131  1  0  0  0  0
112104  2  0  0  0  0
113 91  2  0  0  0  0
114 89  1  0  0  0  0
116 89  1  0  0  0  0
121 98  1  0  0  0  0
122102  1  0  0  0  0
124106  1  0  0  0  0
126109  1  0  0  0  0
127109  1  0  0  0  0
130111  1  0  0  0  0
132113  1  0  0  0  0
133134  1  0  0  0  0
133158  1  0  0  0  0
135157  1  0  0  0  0
135134  1  0  0  0  0
136135  2  0  0  0  0
137138  2  0  0  0  0
137136  1  0  0  0  0
138147  1  0  0  0  0
139140  1  0  0  0  0
139138  1  0  0  0  0
140163  1  0  0  0  0
141164  1  0  0  0  0
141140  2  0  0  0  0
142141  1  0  0  0  0
143142  2  0  0  0  0
143146  1  0  0  0  0
144143  1  0  0  0  0
145144  2  0  0  0  0
146139  2  0  0  0  0
147148  1  0  0  0  0
147157  2  0  0  0  0
148149  1  0  0  0  0
149167  1  0  0  0  0
149150  2  0  0  0  0
150168  1  0  0  0  0
151152  1  0  0  0  0
151150  1  0  0  0  0
152169  1  6  0  0  0
152153  1  0  0  0  0
153170  1  0  0  0  0
153172  1  0  0  0  0
153171  1  0  0  0  0
154187  1  0  0  0  0
154152  1  0  0  0  0
155151  2  0  0  0  0
156148  2  0  0  0  0
156155  1  0  0  0  0
157176  1  0  0  0  0
159133  1  0  0  0  0
160133  1  0  0  0  0
161136  1  0  0  0  0
162137  1  0  0  0  0
165142  1  0  0  0  0
166146  1  0  0  0  0
173154  1  0  0  0  0
174155  1  0  0  0  0
175156  1  0  0  0  0
177179  1  0  0  0  0
177181  1  0  0  0  0
178177  1  0  0  0  0
180177  1  0  0  0  0
182189  1  0  0  0  0
182191  1  0  0  0  0
183182  1  0  0  0  0
183185  1  0  0  0  0
184194  1  0  0  0  0
184183  1  0  0  0  0
185196  1  0  0  0  0
185197  1  0  0  0  0
185195  1  0  0  0  0
186183  1  0  0  0  0
187186  1  0  0  0  0
188187  2  0  0  0  0
190182  1  0  0  0  0
192184  1  0  0  0  0
193184  1  0  0  0  0
M  END
