pom_tetramer.pdb
  -OEChem-06252519133D

197208  0     1  0  0  0  0  0999 V2000
   -3.1640   -5.4270   -0.9100 C   0  0  0  0  0  0  0  0  0  0  0  0
   -2.1530   -4.5360   -1.3760 O   0  0  0  0  0  0  0  0  0  0  0  0
   -2.1870   -3.2420   -0.9350 C   0  0  0  0  0  0  0  0  0  0  0  0
   -3.2350   -2.6450   -0.2560 C   0  0  0  0  0  0  0  0  0  0  0  0
   -3.1270   -1.3110    0.1390 C   0  0  0  0  0  0  0  0  0  0  0  0
   -1.9660   -0.5430   -0.1170 C   0  0  0  0  0  0  0  0  0  0  0  0
   -2.0320    0.8840    0.2530 C   0  0  0  0  0  0  0  0  0  0  0  0
   -1.4340    1.3950    1.4080 C   0  0  0  0  0  0  0  0  0  0  0  0
   -1.3810    2.7650    1.6590 C   0  0  0  0  0  0  0  0  0  0  0  0
   -2.0070    3.6480    0.7870 C   0  0  0  0  0  0  0  0  0  0  0  0
   -2.7520    3.1580   -0.2910 C   0  0  0  0  0  0  0  0  0  0  0  0
   -3.5430    4.0440   -1.1920 C   0  0  0  0  0  0  0  0  0  0  0  0
   -4.0500    3.6320   -2.2250 O   0  0  0  0  0  0  0  0  0  0  0  0
   -2.7410    1.7810   -0.5620 C   0  0  0  0  0  0  0  0  0  0  0  0
   -0.8500   -1.1600   -0.7650 C   0  0  0  0  0  0  0  0  0  0  0  0
    0.4980   -0.5230   -0.9580 C   0  0  0  0  0  0  0  0  0  0  0  0
    1.6800   -1.2200   -0.6230 C   0  0  0  0  0  0  0  0  0  0  0  0
    2.9490   -0.6030   -0.6010 C   0  0  0  0  0  0  0  0  0  0  0  0
    3.0890    0.7520   -0.9180 C   0  0  0  0  0  0  0  0  0  0  0  0
    4.3710    1.5490   -0.6380 C   0  0  2  0  0  0  0  0  0  0  0  0
    5.6750    0.7630   -0.7840 C   0  0  0  0  0  0  0  0  0  0  0  0
    4.2670    2.2690    0.6540 N   0  0  0  0  0  0  0  0  0  0  0  0
    1.9390    1.4200   -1.3780 C   0  0  0  0  0  0  0  0  0  0  0  0
    0.6760    0.7900   -1.4070 C   0  0  0  0  0  0  0  0  0  0  0  0
   -1.0230   -2.4990   -1.1910 C   0  0  0  0  0  0  0  0  0  0  0  0
   -2.7820   -6.4480   -1.0150 H   0  0  0  0  0  0  0  0  0  0  0  0
   -3.4130   -5.2850    0.1460 H   0  0  0  0  0  0  0  0  0  0  0  0
   -4.0630   -5.3300   -1.5240 H   0  0  0  0  0  0  0  0  0  0  0  0
   -4.1560   -3.1770   -0.0350 H   0  0  0  0  0  0  0  0  0  0  0  0
   -3.9790   -0.8560    0.6460 H   0  0  0  0  0  0  0  0  0  0  0  0
   -0.9900    0.7300    2.1330 H   0  0  0  0  0  0  0  0  0  0  0  0
   -0.8500    3.1420    2.5290 H   0  0  0  0  0  0  0  0  0  0  0  0
   -1.9160    4.7120    0.9760 H   0  0  0  0  0  0  0  0  0  0  0  0
   -3.2790    1.4000   -1.4310 H   0  0  0  0  0  0  0  0  0  0  0  0
    1.6270   -2.2480   -0.2730 H   0  0  0  0  0  0  0  0  0  0  0  0
    3.7940   -1.1810   -0.2300 H   0  0  0  0  0  0  0  0  0  0  0  0
    4.4090    2.3480   -1.3910 H   0  0  0  0  0  0  0  0  0  0  0  0
    6.5380    1.4310   -0.6750 H   0  0  0  0  0  0  0  0  0  0  0  0
    5.7370    0.2870   -1.7680 H   0  0  0  0  0  0  0  0  0  0  0  0
    5.7780   -0.0220   -0.0270 H   0  0  0  0  0  0  0  0  0  0  0  0
    3.3780    2.7420    0.7110 H   0  0  0  0  0  0  0  0  0  0  0  0
    1.9970    2.4670   -1.6700 H   0  0  0  0  0  0  0  0  0  0  0  0
   -0.1750    1.3690   -1.7560 H   0  0  0  0  0  0  0  0  0  0  0  0
   -0.2170   -3.0030   -1.7230 H   0  0  0  0  0  0  0  0  0  0  0  0
    5.1600   -5.3160    8.4160 C   0  0  0  0  0  0  0  0  0  0  0  0
    4.1890   -4.2740    8.4960 O   0  0  0  0  0  0  0  0  0  0  0  0
    3.9930   -3.5040    7.3810 C   0  0  0  0  0  0  0  0  0  0  0  0
    4.7740   -3.5350    6.2360 C   0  0  0  0  0  0  0  0  0  0  0  0
    4.4590   -2.6980    5.1700 C   0  0  0  0  0  0  0  0  0  0  0  0
    3.3440   -1.8320    5.2160 C   0  0  0  0  0  0  0  0  0  0  0  0
    3.1020   -0.9960    4.0350 C   0  0  0  0  0  0  0  0  0  0  0  0
    1.9380   -1.1870    3.3060 C   0  0  0  0  0  0  0  0  0  0  0  0
    1.5030   -0.2250    2.4230 C   0  0  0  0  0  0  0  0  0  0  0  0
    2.2880    0.8770    2.1420 C   0  0  0  0  0  0  0  0  0  0  0  0
    3.6070    0.8930    2.5890 C   0  0  0  0  0  0  0  0  0  0  0  0
    4.6530    1.6560    1.8350 C   0  0  0  0  0  0  0  0  0  0  0  0
    5.8200    1.6280    2.2080 O   0  0  0  0  0  0  0  0  0  0  0  0
    3.9890    0.0030    3.6030 C   0  0  0  0  0  0  0  0  0  0  0  0
    2.4780   -1.8300    6.3610 C   0  0  0  0  0  0  0  0  0  0  0  0
    1.1480   -1.1050    6.4390 C   0  0  0  0  0  0  0  0  0  0  0  0
   -0.0080   -1.7580    6.9150 C   0  0  0  0  0  0  0  0  0  0  0  0
   -1.3090   -1.2180    6.7760 C   0  0  0  0  0  0  0  0  0  0  0  0
   -1.5170    0.0030    6.1260 C   0  0  0  0  0  0  0  0  0  0  0  0
   -2.9120    0.4970    5.7000 C   0  0  2  0  0  0  0  0  0  0  0  0
   -4.0150    0.2480    6.7300 C   0  0  0  0  0  0  0  0  0  0  0  0
   -3.2700    0.0430    4.3420 N   0  0  0  0  0  0  0  0  0  0  0  0
   -0.3660    0.7220    5.7630 C   0  0  0  0  0  0  0  0  0  0  0  0
    0.9340    0.1910    5.9470 C   0  0  0  0  0  0  0  0  0  0  0  0
    2.8730   -2.6540    7.4390 C   0  0  0  0  0  0  0  0  0  0  0  0
    4.9660   -6.0140    9.2370 H   0  0  0  0  0  0  0  0  0  0  0  0
    5.0980   -5.8900    7.4860 H   0  0  0  0  0  0  0  0  0  0  0  0
    6.1660   -4.9070    8.5400 H   0  0  0  0  0  0  0  0  0  0  0  0
    5.6350   -4.1890    6.1370 H   0  0  0  0  0  0  0  0  0  0  0  0
    5.0840   -2.7380    4.2780 H   0  0  0  0  0  0  0  0  0  0  0  0
    1.3260   -2.0570    3.4680 H   0  0  0  0  0  0  0  0  0  0  0  0
    0.5780   -0.3930    1.8960 H   0  0  0  0  0  0  0  0  0  0  0  0
    1.9010    1.6030    1.4390 H   0  0  0  0  0  0  0  0  0  0  0  0
    4.9880    0.0700    4.0320 H   0  0  0  0  0  0  0  0  0  0  0  0
    0.0670   -2.7710    7.3040 H   0  0  0  0  0  0  0  0  0  0  0  0
   -2.1550   -1.8340    7.0750 H   0  0  0  0  0  0  0  0  0  0  0  0
   -2.8330    1.5870    5.5980 H   0  0  0  0  0  0  0  0  0  0  0  0
   -4.9410    0.7500    6.4260 H   0  0  0  0  0  0  0  0  0  0  0  0
   -3.7270    0.6370    7.7130 H   0  0  0  0  0  0  0  0  0  0  0  0
   -4.2460   -0.8160    6.8470 H   0  0  0  0  0  0  0  0  0  0  0  0
   -2.5130    0.2140    3.6930 H   0  0  0  0  0  0  0  0  0  0  0  0
   -0.4580    1.6950    5.2840 H   0  0  0  0  0  0  0  0  0  0  0  0
    1.7800    0.7940    5.6220 H   0  0  0  0  0  0  0  0  0  0  0  0
    2.2750   -2.6740    8.3490 H   0  0  0  0  0  0  0  0  0  0  0  0
   -5.0060  -10.8310    4.6480 C   0  0  0  0  0  0  0  0  0  0  0  0
   -3.9960  -10.2840    3.8110 O   0  0  0  0  0  0  0  0  0  0  0  0
   -3.8270   -8.9270    3.8440 C   0  0  0  0  0  0  0  0  0  0  0  0
   -4.5340   -8.0360    4.6370 C   0  0  0  0  0  0  0  0  0  0  0  0
   -4.2050   -6.6830    4.6160 C   0  0  0  0  0  0  0  0  0  0  0  0
   -3.1660   -6.1850    3.8010 C   0  0  0  0  0  0  0  0  0  0  0  0
   -2.7950   -4.7750    4.0130 C   0  0  0  0  0  0  0  0  0  0  0  0
   -1.5200   -4.5230    4.4970 C   0  0  0  0  0  0  0  0  0  0  0  0
   -0.9190   -3.3060    4.2810 C   0  0  0  0  0  0  0  0  0  0  0  0
   -1.6780   -2.2370    3.8440 C   0  0  0  0  0  0  0  0  0  0  0  0
   -3.0670   -2.3630    3.8260 C   0  0  0  0  0  0  0  0  0  0  0  0
   -3.9230   -1.1770    4.1190 C   0  0  0  0  0  0  0  0  0  0  0  0
   -5.1300   -1.2960    4.2570 O   0  0  0  0  0  0  0  0  0  0  0  0
   -3.6210   -3.6580    3.7940 C   0  0  0  0  0  0  0  0  0  0  0  0
   -2.4340   -7.0850    2.9330 C   0  0  0  0  0  0  0  0  0  0  0  0
   -1.2610   -6.7140    2.0230 C   0  0  0  0  0  0  0  0  0  0  0  0
   -0.2730   -7.6440    1.6160 C   0  0  0  0  0  0  0  0  0  0  0  0
    0.8970   -7.2760    0.8980 C   0  0  0  0  0  0  0  0  0  0  0  0
    1.1570   -5.9430    0.5740 C   0  0  0  0  0  0  0  0  0  0  0  0
    2.4840   -5.4260    0.0120 C   0  0  2  0  0  0  0  0  0  0  0  0
    3.2670   -6.4150   -0.8510 C   0  0  0  0  0  0  0  0  0  0  0  0
    3.3210   -4.7910    1.0580 N   0  0  0  0  0  0  0  0  0  0  0  0
    0.1550   -5.0270    0.9020 C   0  0  0  0  0  0  0  0  0  0  0  0
   -1.0260   -5.4120    1.5670 C   0  0  0  0  0  0  0  0  0  0  0  0
   -2.8170   -8.4470    2.9980 C   0  0  0  0  0  0  0  0  0  0  0  0
   -5.0130  -11.9150    4.4990 H   0  0  0  0  0  0  0  0  0  0  0  0
   -4.7920  -10.6480    5.7050 H   0  0  0  0  0  0  0  0  0  0  0  0
   -5.9930  -10.4460    4.3750 H   0  0  0  0  0  0  0  0  0  0  0  0
   -5.3140   -8.3590    5.3180 H   0  0  0  0  0  0  0  0  0  0  0  0
   -4.7270   -6.0170    5.3030 H   0  0  0  0  0  0  0  0  0  0  0  0
   -0.9680   -5.3130    4.9800 H   0  0  0  0  0  0  0  0  0  0  0  0
    0.1240   -3.1990    4.5380 H   0  0  0  0  0  0  0  0  0  0  0  0
   -1.1800   -1.2840    3.7300 H   0  0  0  0  0  0  0  0  0  0  0  0
   -4.6910   -3.7870    3.6500 H   0  0  0  0  0  0  0  0  0  0  0  0
   -0.3300   -8.6860    1.9240 H   0  0  0  0  0  0  0  0  0  0  0  0
    1.6360   -8.0500    0.6960 H   0  0  0  0  0  0  0  0  0  0  0  0
    2.2220   -4.5950   -0.6580 H   0  0  0  0  0  0  0  0  0  0  0  0
    4.1250   -5.9150   -1.3150 H   0  0  0  0  0  0  0  0  0  0  0  0
    2.6370   -6.8160   -1.6520 H   0  0  0  0  0  0  0  0  0  0  0  0
    3.6550   -7.2570   -0.2700 H   0  0  0  0  0  0  0  0  0  0  0  0
    2.7790   -4.1050    1.5590 H   0  0  0  0  0  0  0  0  0  0  0  0
    0.2890   -3.9720    0.6830 H   0  0  0  0  0  0  0  0  0  0  0  0
   -1.7530   -4.6260    1.7380 H   0  0  0  0  0  0  0  0  0  0  0  0
   -2.3140   -9.1930    2.3880 H   0  0  0  0  0  0  0  0  0  0  0  0
    5.8110  -13.3080    7.4250 C   0  0  0  0  0  0  0  0  0  0  0  0
    5.0600  -12.2220    7.9500 O   0  0  0  0  0  0  0  0  0  0  0  0
    4.6880  -11.2470    7.0660 C   0  0  0  0  0  0  0  0  0  0  0  0
    4.9640  -11.2280    5.7060 C   0  0  0  0  0  0  0  0  0  0  0  0
    4.4930  -10.1790    4.9200 C   0  0  0  0  0  0  0  0  0  0  0  0
    3.7240   -9.1360    5.4710 C   0  0  0  0  0  0  0  0  0  0  0  0
    3.1860   -8.1250    4.5470 C   0  0  0  0  0  0  0  0  0  0  0  0
    1.8190   -7.8650    4.5850 C   0  0  0  0  0  0  0  0  0  0  0  0
    1.3550   -6.6520    4.1470 C   0  0  0  0  0  0  0  0  0  0  0  0
    2.1800   -5.7590    3.4760 C   0  0  0  0  0  0  0  0  0  0  0  0
    3.4370   -6.1970    3.0810 C   0  0  0  0  0  0  0  0  0  0  0  0
    4.1060   -5.5790    1.8980 C   0  0  0  0  0  0  0  0  0  0  0  0
    5.2780   -5.8330    1.6440 O   0  0  0  0  0  0  0  0  0  0  0  0
    3.9790   -7.3320    3.6890 C   0  0  0  0  0  0  0  0  0  0  0  0
    3.4300   -9.1300    6.8840 C   0  0  0  0  0  0  0  0  0  0  0  0
    2.5650   -8.1120    7.5960 C   0  0  0  0  0  0  0  0  0  0  0  0
    1.7420   -8.4580    8.6800 C   0  0  0  0  0  0  0  0  0  0  0  0
    0.8450   -7.5440    9.2650 C   0  0  0  0  0  0  0  0  0  0  0  0
    0.6390   -6.2750    8.7240 C   0  0  0  0  0  0  0  0  0  0  0  0
   -0.4340   -5.3170    9.2060 C   0  0  2  0  0  0  0  0  0  0  0  0
   -0.6530   -5.2980   10.7200 C   0  0  0  0  0  0  0  0  0  0  0  0
   -1.7010   -5.4260    8.4860 N   0  0  0  0  0  0  0  0  0  0  0  0
    1.4710   -5.9060    7.6730 C   0  0  0  0  0  0  0  0  0  0  0  0
    2.4640   -6.7740    7.1930 C   0  0  0  0  0  0  0  0  0  0  0  0
    3.9510  -10.2040    7.6370 C   0  0  0  0  0  0  0  0  0  0  0  0
    6.0160  -13.9970    8.2490 H   0  0  0  0  0  0  0  0  0  0  0  0
    5.2410  -13.8550    6.6670 H   0  0  0  0  0  0  0  0  0  0  0  0
    6.7700  -12.9620    7.0290 H   0  0  0  0  0  0  0  0  0  0  0  0
    5.5300  -12.0140    5.2190 H   0  0  0  0  0  0  0  0  0  0  0  0
    4.6990  -10.1960    3.8510 H   0  0  0  0  0  0  0  0  0  0  0  0
    1.1370   -8.5180    5.1250 H   0  0  0  0  0  0  0  0  0  0  0  0
    0.3230   -6.4310    4.3050 H   0  0  0  0  0  0  0  0  0  0  0  0
    1.7570   -4.8160    3.1540 H   0  0  0  0  0  0  0  0  0  0  0  0
    5.0190   -7.6020    3.4990 H   0  0  0  0  0  0  0  0  0  0  0  0
    1.7430   -9.4700    9.0770 H   0  0  0  0  0  0  0  0  0  0  0  0
    0.2490   -7.8780   10.1100 H   0  0  0  0  0  0  0  0  0  0  0  0
   -0.0780   -4.3080    8.9630 H   0  0  0  0  0  0  0  0  0  0  0  0
   -1.3240   -4.4750   10.9940 H   0  0  0  0  0  0  0  0  0  0  0  0
    0.2940   -5.1470   11.2490 H   0  0  0  0  0  0  0  0  0  0  0  0
   -1.1090   -6.2220   11.0860 H   0  0  0  0  0  0  0  0  0  0  0  0
   -2.1920   -4.5630    8.2920 H   0  0  0  0  0  0  0  0  0  0  0  0
    1.3650   -4.9350    7.2020 H   0  0  0  0  0  0  0  0  0  0  0  0
    3.1190   -6.3780    6.4230 H   0  0  0  0  0  0  0  0  0  0  0  0
    3.7760  -10.2530    8.7100 H   0  0  0  0  0  0  0  0  0  0  0  0
   -4.2970    5.7060    0.3290 C   0  0  0  0  0  0  0  0  0  0  0  0
   -3.5510    5.3550   -0.8440 O   0  0  0  0  0  0  0  0  0  0  0  0
   -4.7260    4.8380    0.8380 H   0  0  0  0  0  0  0  0  0  0  0  0
   -5.1010    6.3870    0.0390 H   0  0  0  0  0  0  0  0  0  0  0  0
   -3.6290    6.2400    1.0120 H   0  0  0  0  0  0  0  0  0  0  0  0
   -1.6170   -9.9840    9.0290 C   0  0  0  0  0  0  0  0  0  0  0  0
   -2.6960   -8.8890    9.0120 C   0  0  0  0  0  0  0  0  0  0  0  0
   -3.6480   -9.2020    7.8610 C   0  0  0  0  0  0  0  0  0  0  0  0
   -3.4140   -8.8590   10.3600 C   0  0  0  0  0  0  0  0  0  0  0  0
   -1.9740   -7.6450    8.8410 O   0  0  0  0  0  0  0  0  0  0  0  0
   -2.5660   -6.4830    8.5060 C   0  0  0  0  0  0  0  0  0  0  0  0
   -3.7500   -6.3270    8.2420 O   0  0  0  0  0  0  0  0  0  0  0  0
   -2.0520  -10.9860    9.1040 H   0  0  0  0  0  0  0  0  0  0  0  0
   -1.0100   -9.9400    8.1160 H   0  0  0  0  0  0  0  0  0  0  0  0
   -0.9300   -9.8530    9.8710 H   0  0  0  0  0  0  0  0  0  0  0  0
   -3.1310   -9.0900    6.9040 H   0  0  0  0  0  0  0  0  0  0  0  0
   -4.5180   -8.5400    7.8480 H   0  0  0  0  0  0  0  0  0  0  0  0
   -4.0290  -10.2250    7.9350 H   0  0  0  0  0  0  0  0  0  0  0  0
   -2.7200   -8.5770   11.1600 H   0  0  0  0  0  0  0  0  0  0  0  0
   -4.2140   -8.1120   10.3640 H   0  0  0  0  0  0  0  0  0  0  0  0
   -3.8490   -9.8330   10.6040 H   0  0  0  0  0  0  0  0  0  0  0  0
  1 27  1  0  0  0  0
  2  3  1  0  0  0  0
  1  2  1  0  0  0  0
  3  4  2  0  0  0  0
  4 29  1  0  0  0  0
  4  5  1  0  0  0  0
  5 30  1  0  0  0  0
  5  6  2  0  0  0  0
  6  7  1  0  0  0  0
  7  8  2  0  0  0  0
  8  9  1  0  0  0  0
  8 31  1  0  0  0  0
  9 32  1  0  0  0  0
 10 33  1  0  0  0  0
  9 10  2  0  0  0  0
 10 11  1  0  0  0  0
 12178  1  0  0  0  0
 11 12  1  0  0  0  0
 12 13  2  0  0  0  0
 11 14  2  0  0  0  0
  7 14  1  0  0  0  0
  6 15  1  0  0  0  0
 15 16  1  0  0  0  0
 16 17  2  0  0  0  0
 17 18  1  0  0  0  0
 17 35  1  0  0  0  0
 18 36  1  0  0  0  0
 19 20  1  0  0  0  0
 18 19  2  0  0  0  0
 20 37  1  0  0  0  0
 20 22  1  0  0  0  0
 21 38  1  0  0  0  0
 20 21  1  0  0  0  0
 21 40  1  0  0  0  0
 22 41  1  0  0  0  0
 22 56  1  0  0  0  0
 19 23  1  0  0  0  0
 23 24  2  0  0  0  0
 16 24  1  0  0  0  0
  3 25  1  0  0  0  0
 15 25  2  0  0  0  0
  1 26  1  0  0  0  0
  1 28  1  0  0  0  0
 14 34  1  0  0  0  0
 21 39  1  0  0  0  0
 23 42  1  0  0  0  0
 24 43  1  0  0  0  0
 25 44  1  0  0  0  0
 45 46  1  0  0  0  0
 45 72  1  0  0  0  0
 45 70  1  0  0  0  0
 47 69  2  0  0  0  0
 46 47  1  0  0  0  0
 47 48  1  0  0  0  0
 49 50  1  0  0  0  0
 48 49  2  0  0  0  0
 50 59  2  0  0  0  0
 50 51  1  0  0  0  0
 52 75  1  0  0  0  0
 51 52  2  0  0  0  0
 52 53  1  0  0  0  0
 53 54  2  0  0  0  0
 54 55  1  0  0  0  0
 55 58  2  0  0  0  0
 56 57  2  0  0  0  0
 55 56  1  0  0  0  0
 58 78  1  0  0  0  0
 51 58  1  0  0  0  0
 59 60  1  0  0  0  0
 59 69  1  0  0  0  0
 60 61  2  0  0  0  0
 61 79  1  0  0  0  0
 61 62  1  0  0  0  0
 62 80  1  0  0  0  0
 62 63  2  0  0  0  0
 64 81  1  0  0  0  0
 63 64  1  0  0  0  0
 64 65  1  0  0  0  0
 65 84  1  0  0  0  0
 65 83  1  0  0  0  0
 64 66  1  0  0  0  0
 67 68  2  0  0  0  0
 63 67  1  0  0  0  0
 60 68  1  0  0  0  0
 69 88  1  0  0  0  0
 45 71  1  0  0  0  0
 48 73  1  0  0  0  0
 49 74  1  0  0  0  0
 53 76  1  0  0  0  0
 54 77  1  0  0  0  0
 65 82  1  0  0  0  0
 66 85  1  0  0  0  0
 67 86  1  0  0  0  0
 68 87  1  0  0  0  0
 89115  1  0  0  0  0
 90 91  1  0  0  0  0
 89 90  1  0  0  0  0
 91 92  2  0  0  0  0
 92117  1  0  0  0  0
 92 93  1  0  0  0  0
 93118  1  0  0  0  0
 94 95  1  0  0  0  0
 93 94  2  0  0  0  0
 95 96  2  0  0  0  0
 96119  1  0  0  0  0
 96 97  1  0  0  0  0
 97120  1  0  0  0  0
 97 98  2  0  0  0  0
 98 99  1  0  0  0  0
 99100  1  0  0  0  0
100101  2  0  0  0  0
 66100  1  0  0  0  0
 99102  2  0  0  0  0
 95102  1  0  0  0  0
103113  2  0  0  0  0
 94103  1  0  0  0  0
103104  1  0  0  0  0
105123  1  0  0  0  0
104105  2  0  0  0  0
105106  1  0  0  0  0
106107  2  0  0  0  0
107111  1  0  0  0  0
108125  1  0  0  0  0
107108  1  0  0  0  0
108110  1  0  0  0  0
109128  1  0  0  0  0
108109  1  0  0  0  0
110129  1  0  0  0  0
110144  1  0  0  0  0
111112  2  0  0  0  0
112131  1  0  0  0  0
104112  1  0  0  0  0
 91113  1  0  0  0  0
 89114  1  0  0  0  0
 89116  1  0  0  0  0
 98121  1  0  0  0  0
102122  1  0  0  0  0
106124  1  0  0  0  0
109126  1  0  0  0  0
109127  1  0  0  0  0
111130  1  0  0  0  0
113132  1  0  0  0  0
133134  1  0  0  0  0
133158  1  0  0  0  0
135157  2  0  0  0  0
134135  1  0  0  0  0
135136  1  0  0  0  0
137138  1  0  0  0  0
136137  2  0  0  0  0
138147  2  0  0  0  0
139140  2  0  0  0  0
138139  1  0  0  0  0
140163  1  0  0  0  0
141164  1  0  0  0  0
140141  1  0  0  0  0
141142  2  0  0  0  0
142143  1  0  0  0  0
143146  2  0  0  0  0
143144  1  0  0  0  0
144145  2  0  0  0  0
139146  1  0  0  0  0
147148  1  0  0  0  0
147157  1  0  0  0  0
148149  2  0  0  0  0
149167  1  0  0  0  0
149150  1  0  0  0  0
150168  1  0  0  0  0
151152  1  0  0  0  0
150151  2  0  0  0  0
152169  1  0  0  0  0
152153  1  0  0  0  0
153170  1  0  0  0  0
153172  1  0  0  0  0
153171  1  0  0  0  0
154187  1  0  0  0  0
152154  1  0  0  0  0
151155  1  0  0  0  0
148156  1  0  0  0  0
155156  2  0  0  0  0
157176  1  0  0  0  0
133159  1  0  0  0  0
133160  1  0  0  0  0
136161  1  0  0  0  0
137162  1  0  0  0  0
142165  1  0  0  0  0
146166  1  0  0  0  0
154173  1  0  0  0  0
155174  1  0  0  0  0
156175  1  0  0  0  0
177179  1  0  0  0  0
177181  1  0  0  0  0
177178  1  0  0  0  0
177180  1  0  0  0  0
182189  1  0  0  0  0
182191  1  0  0  0  0
182183  1  0  0  0  0
183185  1  0  0  0  0
184194  1  0  0  0  0
183184  1  0  0  0  0
185196  1  0  0  0  0
185197  1  0  0  0  0
185195  1  0  0  0  0
183186  1  0  0  0  0
186187  1  0  0  0  0
187188  2  0  0  0  0
182190  1  0  0  0  0
184192  1  0  0  0  0
184193  1  0  0  0  0
M  END
> <atom.dprop.PartialCharge>
0.108310 -0.319200 0.122080 -0.201280 -0.083470 -0.069910 -0.051820 -0.081330 -0.148530 -0.073980 -0.138290 0.645970 -0.541360 -0.058860 0.006190 -0.039040 -0.110950 -0.122230 -0.097170 0.153080 -0.108980 -0.573170 -0.122230 -0.110950 -0.144440 0.044920 0.044920 0.044920 0.142470 0.141470 0.141350 0.150010 0.155150 0.159180 0.138520 0.136660 0.081890 0.045770 0.045770 0.045770 0.313170 0.136660 0.138520 0.157690 0.111870 -0.322880 0.149430 -0.162160 -0.088700 -0.077810 -0.036360 -0.090400 -0.141880 -0.075200 -0.145960 0.669790 -0.607810 -0.094210 0.008400 -0.037100 -0.114290 -0.120890 -0.093190 0.151710 -0.114370 -0.566090 -0.120890 -0.114290 -0.187760 0.047480 0.047480 0.047480 0.146110 0.136280 0.140380 0.137680 0.156000 0.138910 0.136960 0.136620 0.083720 0.045790 0.045790 0.045790 0.315700 0.136620 0.136960 0.146640 0.113570 -0.322240 0.146500 -0.199920 -0.083830 -0.071880 -0.040260 -0.103950 -0.145500 -0.079940 -0.143770 0.674530 -0.614400 -0.086720 0.001680 -0.032450 -0.114700 -0.128150 -0.103440 0.154020 -0.111560 -0.573320 -0.128150 -0.114700 -0.120920 0.043320 0.043320 0.043320 0.137850 0.136340 0.137670 0.135760 0.155840 0.149850 0.147470 0.134470 0.077490 0.044910 0.044910 0.044910 0.313630 0.134470 0.147470 0.147620 0.113410 -0.326710 0.126040 -0.204090 -0.083520 -0.069730 -0.040070 -0.087250 -0.133720 -0.102210 -0.145690 0.676070 -0.617630 -0.061130 0.010370 -0.038430 -0.113550 -0.106070 -0.107430 0.169130 -0.104740 -0.557970 -0.106070 -0.113550 -0.147060 0.045140 0.045140 0.045140 0.139670 0.140210 0.141290 0.138140 0.130240 0.159240 0.137390 0.134850 0.065880 0.047990 0.047990 0.047990 0.326480 0.134850 0.137390 0.155270 0.126030 -0.441110 0.051550 0.051550 0.051550 -0.114660 0.188930 -0.114660 -0.114660 -0.451270 0.752490 -0.593800 0.050850 0.050850 0.050850 0.050850 0.050850 0.050850 0.050850 0.050850 0.050850

$$$$
