pom_tetramer.pdb
 OpenBabel09092515303D

197207  0  0  1  0  0  0  0  0999 V2000
   -2.9020   -5.8830   -0.0320 C   0  0  0  0  0  0  0  0  0  0  0  0
   -1.7710   -5.0440   -0.2170 O   0  0  0  0  0  0  0  0  0  0  0  0
   -1.9030   -3.7130    0.0600 C   0  0  0  0  0  0  0  0  0  0  0  0
   -3.0200   -3.0660    0.5730 C   0  0  0  0  0  0  0  0  0  0  0  0
   -2.9710   -1.6960    0.9110 C   0  0  0  0  0  0  0  0  0  0  0  0
   -1.8160   -0.9020    0.7370 C   0  0  0  0  0  0  0  0  0  0  0  0
   -1.9440    0.5600    1.3140 C   0  0  0  0  0  0  0  0  0  0  0  0
   -1.3970    0.9170    2.5600 C   0  0  0  0  0  0  0  0  0  0  0  0
   -1.1000    2.2730    2.8700 C   0  0  0  0  0  0  0  0  0  0  0  0
   -1.4350    3.3340    2.0170 C   0  0  0  0  0  0  0  0  0  0  0  0
   -2.1750    3.0720    0.8870 C   0  0  0  0  0  0  0  0  0  0  0  0
   -2.8510    4.2300    0.1720 C   0  0  0  0  0  0  0  0  0  0  0  0
   -3.9180    4.1990   -0.3860 O   0  0  0  0  0  0  0  0  0  0  0  0
   -2.3760    1.6950    0.5600 C   0  0  0  0  0  0  0  0  0  0  0  0
   -0.6550   -1.5880    0.0960 C   0  0  0  0  0  0  0  0  0  0  0  0
    0.7550   -1.0670   -0.1730 C   0  0  0  0  0  0  0  0  0  0  0  0
    1.7760   -0.8980    1.2860 C   0  0  0  0  0  0  0  0  0  0  0  0
    3.3660   -0.1050    1.2210 C   0  0  0  0  0  0  0  0  0  0  0  0
    3.9580    0.7000   -0.2730 C   0  0  0  0  0  0  0  0  0  0  0  0
    5.0870    1.7310   -0.1160 C   0  0  2  0  0  0  0  0  0  0  0  0
    6.4400    1.1480   -0.4630 C   0  0  0  0  0  0  0  0  0  0  0  0
    5.0540    2.4560    1.1950 N   0  0  0  0  0  0  0  0  0  0  0  0
    3.0210    0.4590   -1.8070 C   0  0  0  0  0  0  0  0  0  0  0  0
    1.3830   -0.3900   -1.7510 C   0  0  0  0  0  0  0  0  0  0  0  0
   -0.7520   -2.9690   -0.1900 C   0  0  0  0  0  0  0  0  0  0  0  0
   -2.5790   -6.9170   -0.1980 H   0  0  0  0  0  0  0  0  0  0  0  0
   -3.2940   -5.8250    0.9890 H   0  0  0  0  0  0  0  0  0  0  0  0
   -3.6750   -5.6520   -0.7700 H   0  0  0  0  0  0  0  0  0  0  0  0
   -3.9480   -3.6010    0.7500 H   0  0  0  0  0  0  0  0  0  0  0  0
   -3.8670   -1.2490    1.3410 H   0  0  0  0  0  0  0  0  0  0  0  0
   -1.0370    0.1480    3.2360 H   0  0  0  0  0  0  0  0  0  0  0  0
   -0.5670    2.5110    3.7830 H   0  0  0  0  0  0  0  0  0  0  0  0
   -1.1990    4.3630    2.2840 H   0  0  0  0  0  0  0  0  0  0  0  0
   -2.7390    1.5340   -0.4170 H   0  0  0  0  0  0  0  0  0  0  0  0
    1.4570   -1.3760    2.2110 H   0  0  0  0  0  0  0  0  0  0  0  0
    3.9950   -0.1550    2.1030 H   0  0  0  0  0  0  0  0  0  0  0  0
    4.8600    2.5200   -0.8440 H   0  0  0  0  0  0  0  0  0  0  0  0
    7.2160    1.9180   -0.4010 H   0  0  0  0  0  0  0  0  0  0  0  0
    6.4310    0.7550   -1.4860 H   0  0  0  0  0  0  0  0  0  0  0  0
    6.7140    0.3270    0.2040 H   0  0  0  0  0  0  0  0  0  0  0  0
    4.4100    3.2350    1.1970 H   0  0  0  0  0  0  0  0  0  0  0  0
    3.3820    0.9070   -2.7380 H   0  0  0  0  0  0  0  0  0  0  0  0
    0.7800   -0.4600   -2.6580 H   0  0  0  0  0  0  0  0  0  0  0  0
    0.1200   -3.5010   -0.5760 H   0  0  0  0  0  0  0  0  0  0  0  0
    3.2920   -4.1460    9.5860 C   0  0  0  0  0  0  0  0  0  0  0  0
    3.3060   -2.7400    9.7770 O   0  0  0  0  0  0  0  0  0  0  0  0
    3.2840   -1.9480    8.6650 C   0  0  0  0  0  0  0  0  0  0  0  0
    3.1940   -2.3600    7.3400 C   0  0  0  0  0  0  0  0  0  0  0  0
    3.1770   -1.4100    6.3020 C   0  0  0  0  0  0  0  0  0  0  0  0
    3.2520   -0.0280    6.5660 C   0  0  0  0  0  0  0  0  0  0  0  0
    3.2370    0.9650    5.4620 C   0  0  0  0  0  0  0  0  0  0  0  0
    2.2300    1.9410    5.3970 C   0  0  0  0  0  0  0  0  0  0  0  0
    2.3550    3.0350    4.5390 C   0  0  0  0  0  0  0  0  0  0  0  0
    3.4470    3.1370    3.6600 C   0  0  0  0  0  0  0  0  0  0  0  0
    4.3910    2.1030    3.5980 C   0  0  0  0  0  0  0  0  0  0  0  0
    5.3640    1.8950    2.4310 C   0  0  0  0  0  0  0  0  0  0  0  0
    6.2880    1.1010    2.5790 O   0  0  0  0  0  0  0  0  0  0  0  0
    4.2920    1.0500    4.5310 C   0  0  0  0  0  0  0  0  0  0  0  0
    3.3520    0.3890    7.9240 C   0  0  0  0  0  0  0  0  0  0  0  0
    3.4410    1.8100    8.3210 C   0  0  0  0  0  0  0  0  0  0  0  0
    2.5210    2.3500    9.2270 C   0  0  0  0  0  0  0  0  0  0  0  0
    2.5630    3.7020    9.5630 C   0  0  0  0  0  0  0  0  0  0  0  0
    3.4850    4.5700    8.9570 C   0  0  0  0  0  0  0  0  0  0  0  0
    3.4360    6.0700    9.2050 C   0  0  2  0  0  0  0  0  0  0  0  0
    3.7350    6.4310   10.6560 C   0  0  0  0  0  0  0  0  0  0  0  0
    2.2020    6.6160    8.6370 N   0  0  0  0  0  0  0  0  0  0  0  0
    4.4200    4.0310    8.0670 C   0  0  0  0  0  0  0  0  0  0  0  0
    4.4170    2.6650    7.7830 C   0  0  0  0  0  0  0  0  0  0  0  0
    3.3600   -0.5850    8.9420 C   0  0  0  0  0  0  0  0  0  0  0  0
    3.3270   -4.6140   10.5760 H   0  0  0  0  0  0  0  0  0  0  0  0
    2.3660   -4.4680    9.0990 H   0  0  0  0  0  0  0  0  0  0  0  0
    4.1730   -4.4780    9.0290 H   0  0  0  0  0  0  0  0  0  0  0  0
    3.1360   -3.4120    7.0780 H   0  0  0  0  0  0  0  0  0  0  0  0
    3.0990   -1.7650    5.2760 H   0  0  0  0  0  0  0  0  0  0  0  0
    1.3750    1.8840    6.0720 H   0  0  0  0  0  0  0  0  0  0  0  0
    1.5810    3.7990    4.5400 H   0  0  0  0  0  0  0  0  0  0  0  0
    3.4800    3.9850    2.9850 H   0  0  0  0  0  0  0  0  0  0  0  0
    5.0530    0.2680    4.5280 H   0  0  0  0  0  0  0  0  0  0  0  0
    1.7480    1.7240    9.6680 H   0  0  0  0  0  0  0  0  0  0  0  0
    1.8370    4.0760   10.2830 H   0  0  0  0  0  0  0  0  0  0  0  0
    4.2270    6.5370    8.6020 H   0  0  0  0  0  0  0  0  0  0  0  0
    3.7230    7.5160   10.7960 H   0  0  0  0  0  0  0  0  0  0  0  0
    4.7300    6.0640   10.9370 H   0  0  0  0  0  0  0  0  0  0  0  0
    3.0240    5.9880   11.3600 H   0  0  0  0  0  0  0  0  0  0  0  0
    2.2240    6.5750    7.6340 H   0  0  0  0  0  0  0  0  0  0  0  0
    5.1560    4.6640    7.5770 H   0  0  0  0  0  0  0  0  0  0  0  0
    5.1650    2.2730    7.0960 H   0  0  0  0  0  0  0  0  0  0  0  0
    3.4430   -0.2740    9.9830 H   0  0  0  0  0  0  0  0  0  0  0  0
   -6.6140    1.1970   11.9330 C   0  0  0  0  0  0  0  0  0  0  0  0
   -6.7330    2.1670   10.9030 O   0  0  0  0  0  0  0  0  0  0  0  0
   -5.5750    2.6840   10.3950 C   0  0  0  0  0  0  0  0  0  0  0  0
   -4.2800    2.3160   10.7300 C   0  0  0  0  0  0  0  0  0  0  0  0
   -3.1920    2.9280   10.0920 C   0  0  0  0  0  0  0  0  0  0  0  0
   -3.3720    3.9210    9.1050 C   0  0  0  0  0  0  0  0  0  0  0  0
   -2.1850    4.4640    8.4110 C   0  0  0  0  0  0  0  0  0  0  0  0
   -2.0270    4.2730    7.0310 C   0  0  0  0  0  0  0  0  0  0  0  0
   -0.9550    4.8340    6.3400 C   0  0  0  0  0  0  0  0  0  0  0  0
    0.0090    5.5700    7.0270 C   0  0  0  0  0  0  0  0  0  0  0  0
   -0.0930    5.7430    8.4140 C   0  0  0  0  0  0  0  0  0  0  0  0
    0.9820    6.3790    9.2480 C   0  0  0  0  0  0  0  0  0  0  0  0
    0.7920    6.5500   10.4480 O   0  0  0  0  0  0  0  0  0  0  0  0
   -1.1970    5.1910    9.0920 C   0  0  0  0  0  0  0  0  0  0  0  0
   -4.6950    4.3180    8.7800 C   0  0  0  0  0  0  0  0  0  0  0  0
   -5.0260    5.3540    7.7740 C   0  0  0  0  0  0  0  0  0  0  0  0
   -5.9600    5.0780    6.7660 C   0  0  0  0  0  0  0  0  0  0  0  0
   -6.3060    6.0380    5.8170 C   0  0  0  0  0  0  0  0  0  0  0  0
   -5.6640    7.2820    5.7820 C   0  0  0  0  0  0  0  0  0  0  0  0
   -5.8910    8.2340    4.6110 C   0  0  2  0  0  0  0  0  0  0  0  0
   -7.3250    8.7530    4.5560 C   0  0  0  0  0  0  0  0  0  0  0  0
   -5.3790    7.6270    3.3650 N   0  0  0  0  0  0  0  0  0  0  0  0
   -4.7520    7.5830    6.8040 C   0  0  0  0  0  0  0  0  0  0  0  0
   -4.4570    6.6380    7.7980 C   0  0  0  0  0  0  0  0  0  0  0  0
   -5.7680    3.6780    9.4370 C   0  0  0  0  0  0  0  0  0  0  0  0
   -7.6260    0.9140   12.2380 H   0  0  0  0  0  0  0  0  0  0  0  0
   -6.1100    0.2960   11.5700 H   0  0  0  0  0  0  0  0  0  0  0  0
   -6.1050    1.6140   12.8080 H   0  0  0  0  0  0  0  0  0  0  0  0
   -4.0770    1.5520   11.4730 H   0  0  0  0  0  0  0  0  0  0  0  0
   -2.1860    2.6050   10.3590 H   0  0  0  0  0  0  0  0  0  0  0  0
   -2.7680    3.6890    6.4920 H   0  0  0  0  0  0  0  0  0  0  0  0
   -0.8680    4.6930    5.2670 H   0  0  0  0  0  0  0  0  0  0  0  0
    0.8300    5.9770    6.4500 H   0  0  0  0  0  0  0  0  0  0  0  0
   -1.2820    5.3220   10.1710 H   0  0  0  0  0  0  0  0  0  0  0  0
   -6.4240    4.0950    6.6970 H   0  0  0  0  0  0  0  0  0  0  0  0
   -7.0450    5.7750    5.0630 H   0  0  0  0  0  0  0  0  0  0  0  0
   -5.2470    9.1110    4.7670 H   0  0  0  0  0  0  0  0  0  0  0  0
   -7.4400    9.4860    3.7520 H   0  0  0  0  0  0  0  0  0  0  0  0
   -7.5900    9.2440    5.5010 H   0  0  0  0  0  0  0  0  0  0  0  0
   -8.0550    7.9550    4.3950 H   0  0  0  0  0  0  0  0  0  0  0  0
   -4.3750    7.5410    3.3860 H   0  0  0  0  0  0  0  0  0  0  0  0
   -4.2540    8.5490    6.8420 H   0  0  0  0  0  0  0  0  0  0  0  0
   -3.7620    6.9090    8.5910 H   0  0  0  0  0  0  0  0  0  0  0  0
   -6.7920    3.9640    9.1980 H   0  0  0  0  0  0  0  0  0  0  0  0
   -8.4490   -2.7200    1.2190 C   0  0  0  0  0  0  0  0  0  0  0  0
   -7.4000   -2.2040    0.4100 O   0  0  0  0  0  0  0  0  0  0  0  0
   -7.0320   -0.9140    0.6740 C   0  0  0  0  0  0  0  0  0  0  0  0
   -7.3430   -0.2170    1.8220 C   0  0  0  0  0  0  0  0  0  0  0  0
   -6.8430    1.0650    1.9860 C   0  0  0  0  0  0  0  0  0  0  0  0
   -5.9810    1.7090    1.0450 C   0  0  0  0  0  0  0  0  0  0  0  0
   -5.3810    2.9190    1.7400 C   0  0  0  0  0  0  0  0  0  0  0  0
   -4.4630    2.6720    2.7900 C   0  0  0  0  0  0  0  0  0  0  0  0
   -3.9290    3.6790    3.6050 C   0  0  0  0  0  0  0  0  0  0  0  0
   -4.3220    4.9900    3.4420 C   0  0  0  0  0  0  0  0  0  0  0  0
   -5.3770    5.2730    2.5710 C   0  0  0  0  0  0  0  0  0  0  0  0
   -6.0700    6.6070    2.7080 C   0  0  0  0  0  0  0  0  0  0  0  0
   -7.2330    6.7210    2.3400 O   0  0  0  0  0  0  0  0  0  0  0  0
   -5.9080    4.2350    1.7360 C   0  0  0  0  0  0  0  0  0  0  0  0
   -5.6960    1.0010   -0.2120 C   0  0  0  0  0  0  0  0  0  0  0  0
   -4.8250    1.3580   -1.4320 C   0  0  0  0  0  0  0  0  0  0  0  0
   -3.8360    0.4690   -1.9630 C   0  0  0  0  0  0  0  0  0  0  0  0
   -2.7080    0.9370   -2.7080 C   0  0  0  0  0  0  0  0  0  0  0  0
   -2.5750    2.2950   -2.9960 C   0  0  0  0  0  0  0  0  0  0  0  0
   -1.2200    2.9770   -3.3310 C   0  0  2  0  0  0  0  0  0  0  0  0
   -0.7320    2.6000   -4.7230 C   0  0  0  0  0  0  0  0  0  0  0  0
   -0.1980    2.8210   -2.2440 N   0  0  0  0  0  0  0  0  0  0  0  0
   -3.7610    3.0410   -2.8680 C   0  0  0  0  0  0  0  0  0  0  0  0
   -4.8780    2.5700   -2.1080 C   0  0  0  0  0  0  0  0  0  0  0  0
   -6.2500   -0.3060   -0.3140 C   0  0  0  0  0  0  0  0  0  0  0  0
   -8.7450   -3.6850    0.8020 H   0  0  0  0  0  0  0  0  0  0  0  0
   -8.1070   -2.8860    2.2460 H   0  0  0  0  0  0  0  0  0  0  0  0
   -9.3240   -2.0610    1.1970 H   0  0  0  0  0  0  0  0  0  0  0  0
   -7.9330   -0.6380    2.6280 H   0  0  0  0  0  0  0  0  0  0  0  0
   -7.0650    1.5620    2.9350 H   0  0  0  0  0  0  0  0  0  0  0  0
   -4.1210    1.6550    2.9770 H   0  0  0  0  0  0  0  0  0  0  0  0
   -3.1710    3.4370    4.3430 H   0  0  0  0  0  0  0  0  0  0  0  0
   -3.8640    5.7330    4.0880 H   0  0  0  0  0  0  0  0  0  0  0  0
   -6.7690    4.4600    1.1120 H   0  0  0  0  0  0  0  0  0  0  0  0
   -3.7850   -0.5630   -1.6180 H   0  0  0  0  0  0  0  0  0  0  0  0
   -1.8790    0.2540   -2.8890 H   0  0  0  0  0  0  0  0  0  0  0  0
   -1.4110    4.0600   -3.3400 H   0  0  0  0  0  0  0  0  0  0  0  0
    0.1150    3.2320   -5.0170 H   0  0  0  0  0  0  0  0  0  0  0  0
   -1.5140    2.7540   -5.4720 H   0  0  0  0  0  0  0  0  0  0  0  0
   -0.4130    1.5540   -4.7670 H   0  0  0  0  0  0  0  0  0  0  0  0
   -0.4500    3.2520   -1.3710 H   0  0  0  0  0  0  0  0  0  0  0  0
   -3.7960    4.0750   -3.2080 H   0  0  0  0  0  0  0  0  0  0  0  0
   -5.6970    3.2590   -1.9130 H   0  0  0  0  0  0  0  0  0  0  0  0
   -6.0480   -0.9030   -1.2040 H   0  0  0  0  0  0  0  0  0  0  0  0
   -3.0520    6.5660    0.3620 C   0  0  0  0  0  0  0  0  0  0  0  0
   -2.1880    5.4050    0.4160 O   0  0  0  0  0  0  0  0  0  0  0  0
   -4.1240    6.3480    0.2980 H   0  0  0  0  0  0  0  0  0  0  0  0
   -2.7780    7.2200   -0.4680 H   0  0  0  0  0  0  0  0  0  0  0  0
   -2.8870    7.0970    1.3050 H   0  0  0  0  0  0  0  0  0  0  0  0
    2.0120    1.8210    1.3220 C   0  0  0  0  0  0  0  0  0  0  0  0
    1.8500    0.8670   -0.1120 C   0  0  0  0  0  0  0  0  0  0  0  0
    2.8290   -1.0530   -0.5260 C   0  0  0  0  0  0  0  0  0  0  0  0
    0.3140    1.1650   -0.0460 C   0  0  0  0  0  0  0  0  0  0  0  0
    1.8950    2.2470   -1.1890 O   0  0  0  0  0  0  0  0  0  0  0  0
    1.1470    2.4780   -2.3620 C   0  0  0  0  0  0  0  0  0  0  0  0
    1.7200    2.4350   -3.4550 O   0  0  0  0  0  0  0  0  0  0  0  0
    2.0630    1.2700    2.2690 H   0  0  0  0  0  0  0  0  0  0  0  0
    2.7590    2.5720    1.1620 H   0  0  0  0  0  0  0  0  0  0  0  0
    1.1680    2.4740    1.5360 H   0  0  0  0  0  0  0  0  0  0  0  0
    3.9570   -1.2280   -0.3780 H   0  0  0  0  0  0  0  0  0  0  0  0
    2.9120   -1.5230   -1.5630 H   0  0  0  0  0  0  0  0  0  0  0  0
    2.5520   -2.0550   -0.0550 H   0  0  0  0  0  0  0  0  0  0  0  0
    0.1020    2.2220    0.0520 H   0  0  0  0  0  0  0  0  0  0  0  0
   -0.3240    0.8400   -0.8740 H   0  0  0  0  0  0  0  0  0  0  0  0
    0.0730    0.7460    0.8990 H   0  0  0  0  0  0  0  0  0  0  0  0
  1 27  1  0  0  0  0
  2  1  1  0  0  0  0
  2  3  1  0  0  0  0
  3  4  1  0  0  0  0
  4 29  1  0  0  0  0
  4  5  2  0  0  0  0
  5 30  1  0  0  0  0
  6  5  1  0  0  0  0
  6  7  1  0  0  0  0
  7  8  1  0  0  0  0
  8  9  2  0  0  0  0
  8 31  1  0  0  0  0
  9 32  1  0  0  0  0
 10 33  1  0  0  0  0
 10  9  1  0  0  0  0
 11 10  2  0  0  0  0
 12178  1  0  0  0  0
 12 11  1  0  0  0  0
 13 12  2  0  0  0  0
 14 11  1  0  0  0  0
 14  7  2  0  0  0  0
 15  6  2  0  0  0  0
 16 15  1  0  0  0  0
 16 17  1  0  0  0  0
 17 35  1  0  0  0  0
 18 17  2  0  0  0  0
 18 36  1  0  0  0  0
 19 20  1  0  0  0  0
 19 18  1  0  0  0  0
 20 37  1  6  0  0  0
 20 22  1  0  0  0  0
 21 38  1  0  0  0  0
 21 20  1  0  0  0  0
 21 40  1  0  0  0  0
 22 41  1  0  0  0  0
 22 56  1  0  0  0  0
 23 24  1  0  0  0  0
 23 19  2  0  0  0  0
 24 16  2  0  0  0  0
 25  3  2  0  0  0  0
 25 15  1  0  0  0  0
 26  1  1  0  0  0  0
 28  1  1  0  0  0  0
 34 14  1  0  0  0  0
 39 21  1  0  0  0  0
 42 23  1  0  0  0  0
 43 24  1  0  0  0  0
 44 25  1  0  0  0  0
 45 46  1  0  0  0  0
 45 70  1  0  0  0  0
 47 69  1  0  0  0  0
 47 46  1  0  0  0  0
 48 47  2  0  0  0  0
 49 50  2  0  0  0  0
 49 48  1  0  0  0  0
 50 59  1  0  0  0  0
 51 50  1  0  0  0  0
 52 51  1  0  0  0  0
 52 75  1  0  0  0  0
 53 76  1  0  0  0  0
 53 52  2  0  0  0  0
 54 53  1  0  0  0  0
 55 54  2  0  0  0  0
 55 58  1  0  0  0  0
 56 57  2  0  0  0  0
 56 55  1  0  0  0  0
 58 51  2  0  0  0  0
 59 60  1  0  0  0  0
 59 69  2  0  0  0  0
 60 61  1  0  0  0  0
 61 62  2  0  0  0  0
 61 79  1  0  0  0  0
 62 80  1  0  0  0  0
 63 64  1  0  0  0  0
 63 62  1  0  0  0  0
 64 81  1  6  0  0  0
 64 65  1  0  0  0  0
 65 82  1  0  0  0  0
 65 83  1  0  0  0  0
 65 84  1  0  0  0  0
 66 64  1  0  0  0  0
 66100  1  0  0  0  0
 67 63  2  0  0  0  0
 68 67  1  0  0  0  0
 68 60  2  0  0  0  0
 69 88  1  0  0  0  0
 71 45  1  0  0  0  0
 72 45  1  0  0  0  0
 73 48  1  0  0  0  0
 74 49  1  0  0  0  0
 77 54  1  0  0  0  0
 78 58  1  0  0  0  0
 85 66  1  0  0  0  0
 86 67  1  0  0  0  0
 87 68  1  0  0  0  0
 89114  1  0  0  0  0
 89116  1  0  0  0  0
 90 89  1  0  0  0  0
 91 92  1  0  0  0  0
 91 90  1  0  0  0  0
 92117  1  0  0  0  0
 93118  1  0  0  0  0
 93 92  2  0  0  0  0
 94 93  1  0  0  0  0
 95102  1  0  0  0  0
 95 94  1  0  0  0  0
 96 95  2  0  0  0  0
 97 98  2  0  0  0  0
 97 96  1  0  0  0  0
 98 99  1  0  0  0  0
 99102  2  0  0  0  0
 99100  1  0  0  0  0
100101  2  0  0  0  0
102122  1  0  0  0  0
103 94  2  0  0  0  0
103113  1  0  0  0  0
104112  1  0  0  0  0
104103  1  0  0  0  0
105104  2  0  0  0  0
106105  1  0  0  0  0
107106  2  0  0  0  0
107111  1  0  0  0  0
108125  1  1  0  0  0
108107  1  0  0  0  0
109108  1  0  0  0  0
109127  1  0  0  0  0
110129  1  0  0  0  0
110108  1  0  0  0  0
111130  1  0  0  0  0
111112  2  0  0  0  0
112131  1  0  0  0  0
113 91  2  0  0  0  0
115 89  1  0  0  0  0
119 96  1  0  0  0  0
120 97  1  0  0  0  0
121 98  1  0  0  0  0
123105  1  0  0  0  0
124106  1  0  0  0  0
126109  1  0  0  0  0
128109  1  0  0  0  0
132113  1  0  0  0  0
133159  1  0  0  0  0
134135  1  0  0  0  0
134133  1  0  0  0  0
135136  1  0  0  0  0
136137  2  0  0  0  0
136161  1  0  0  0  0
137162  1  0  0  0  0
138139  1  0  0  0  0
138137  1  0  0  0  0
139140  1  0  0  0  0
140163  1  0  0  0  0
140141  2  0  0  0  0
141164  1  0  0  0  0
142141  1  0  0  0  0
142165  1  0  0  0  0
143144  1  0  0  0  0
143142  2  0  0  0  0
144110  1  0  0  0  0
145144  2  0  0  0  0
146139  2  0  0  0  0
146143  1  0  0  0  0
147138  2  0  0  0  0
148147  1  0  0  0  0
149167  1  0  0  0  0
149148  1  0  0  0  0
150149  2  0  0  0  0
151155  2  0  0  0  0
151150  1  0  0  0  0
152169  1  6  0  0  0
152151  1  0  0  0  0
152154  1  0  0  0  0
153152  1  0  0  0  0
154173  1  0  0  0  0
155156  1  0  0  0  0
156175  1  0  0  0  0
156148  2  0  0  0  0
157147  1  0  0  0  0
157135  2  0  0  0  0
158133  1  0  0  0  0
160133  1  0  0  0  0
166146  1  0  0  0  0
168150  1  0  0  0  0
170153  1  0  0  0  0
171153  1  0  0  0  0
172153  1  0  0  0  0
174155  1  0  0  0  0
176157  1  0  0  0  0
177178  1  0  0  0  0
177181  1  0  0  0  0
179177  1  0  0  0  0
180177  1  0  0  0  0
182191  1  0  0  0  0
182189  1  0  0  0  0
183185  1  0  0  0  0
183182  1  0  0  0  0
184192  1  0  0  0  0
184194  1  0  0  0  0
185195  1  0  0  0  0
185197  1  0  0  0  0
186183  1  0  0  0  0
187154  1  0  0  0  0
187186  1  0  0  0  0
188187  2  0  0  0  0
190182  1  0  0  0  0
193184  1  0  0  0  0
196185  1  0  0  0  0
M  END
