pom_tetramer.pdb
 OpenBabel09082511003D

197208  0  0  1  0  0  0  0  0999 V2000
   -3.1940   -5.6600    0.1540 C   0  0  0  0  0  0  0  0  0  0  0  0
   -2.1480   -4.8300   -0.3360 O   0  0  0  0  0  0  0  0  0  0  0  0
   -2.0350   -3.5800    0.2030 C   0  0  0  0  0  0  0  0  0  0  0  0
   -3.0340   -2.8690    0.8420 C   0  0  0  0  0  0  0  0  0  0  0  0
   -2.7780   -1.5640    1.2920 C   0  0  0  0  0  0  0  0  0  0  0  0
   -1.5220   -0.8990    1.1360 C   0  0  0  0  0  0  0  0  0  0  0  0
   -1.6130    0.5800    1.6040 C   0  0  0  0  0  0  0  0  0  0  0  0
   -1.4720    0.9480    2.9380 C   0  0  0  0  0  0  0  0  0  0  0  0
   -1.5470    2.3100    3.3310 C   0  0  0  0  0  0  0  0  0  0  0  0
   -1.7100    3.3590    2.3930 C   0  0  0  0  0  0  0  0  0  0  0  0
   -1.9830    3.0580    1.0820 C   0  0  0  0  0  0  0  0  0  0  0  0
   -2.3000    4.1540    0.0760 C   0  0  0  0  0  0  0  0  0  0  0  0
   -2.9320    3.9750   -0.9400 O   0  0  0  0  0  0  0  0  0  0  0  0
   -2.0160    1.6740    0.7610 C   0  0  0  0  0  0  0  0  0  0  0  0
   -0.4250   -1.7040    0.5410 C   0  0  0  0  0  0  0  0  0  0  0  0
    1.0790   -1.4260    0.3250 C   0  0  0  0  0  0  0  0  0  0  0  0
    2.0830   -1.7590    1.2530 C   0  0  0  0  0  0  0  0  0  0  0  0
    3.4490   -1.3130    1.1160 C   0  0  0  0  0  0  0  0  0  0  0  0
    3.8380   -0.4570    0.0690 C   0  0  0  0  0  0  0  0  0  0  0  0
    5.0500    0.5580    0.1210 C   0  0  2  0  0  0  0  0  0  0  0  0
    6.3590    0.0270   -0.4210 C   0  0  0  0  0  0  0  0  0  0  0  0
    5.2330    1.4700    1.3390 N   0  0  0  0  0  0  0  0  0  0  0  0
    2.9260   -0.4180   -1.0050 C   0  0  0  0  0  0  0  0  0  0  0  0
    1.6040   -0.9600   -0.8940 C   0  0  0  0  0  0  0  0  0  0  0  0
   -0.7730   -2.9970    0.0560 C   0  0  0  0  0  0  0  0  0  0  0  0
   -2.9140   -6.6970   -0.0610 H   0  0  0  0  0  0  0  0  0  0  0  0
   -3.3200   -5.5750    1.2380 H   0  0  0  0  0  0  0  0  0  0  0  0
   -4.1300   -5.4480   -0.3700 H   0  0  0  0  0  0  0  0  0  0  0  0
   -4.0320   -3.2760    0.9680 H   0  0  0  0  0  0  0  0  0  0  0  0
   -3.6110   -1.0220    1.7440 H   0  0  0  0  0  0  0  0  0  0  0  0
   -1.2440    0.1980    3.6850 H   0  0  0  0  0  0  0  0  0  0  0  0
   -1.3210    2.5720    4.3580 H   0  0  0  0  0  0  0  0  0  0  0  0
   -1.6000    4.3970    2.6910 H   0  0  0  0  0  0  0  0  0  0  0  0
   -2.2700    1.4650   -0.2470 H   0  0  0  0  0  0  0  0  0  0  0  0
    1.8040   -2.3060    2.1500 H   0  0  0  0  0  0  0  0  0  0  0  0
    4.1390   -1.5090    1.9320 H   0  0  0  0  0  0  0  0  0  0  0  0
    4.7340    1.3170   -0.6160 H   0  0  0  0  0  0  0  0  0  0  0  0
    7.0790    0.8480   -0.5280 H   0  0  0  0  0  0  0  0  0  0  0  0
    6.2140   -0.4140   -1.4120 H   0  0  0  0  0  0  0  0  0  0  0  0
    6.7920   -0.7260    0.2390 H   0  0  0  0  0  0  0  0  0  0  0  0
    5.3180    2.4350    1.0620 H   0  0  0  0  0  0  0  0  0  0  0  0
    3.1610    0.1340   -1.9130 H   0  0  0  0  0  0  0  0  0  0  0  0
    0.9260   -0.8450   -1.7340 H   0  0  0  0  0  0  0  0  0  0  0  0
   -0.0140   -3.5880   -0.4590 H   0  0  0  0  0  0  0  0  0  0  0  0
    3.2530   -4.2780    9.5490 C   0  0  0  0  0  0  0  0  0  0  0  0
    3.2860   -2.9000    9.9010 O   0  0  0  0  0  0  0  0  0  0  0  0
    3.3840   -2.0070    8.8700 C   0  0  0  0  0  0  0  0  0  0  0  0
    3.3170   -2.3190    7.5160 C   0  0  0  0  0  0  0  0  0  0  0  0
    3.4560   -1.3120    6.5580 C   0  0  0  0  0  0  0  0  0  0  0  0
    3.6590    0.0330    6.9250 C   0  0  0  0  0  0  0  0  0  0  0  0
    3.8610    1.0340    5.8490 C   0  0  0  0  0  0  0  0  0  0  0  0
    3.1490    2.2400    5.8480 C   0  0  0  0  0  0  0  0  0  0  0  0
    3.5820    3.2860    5.0400 C   0  0  0  0  0  0  0  0  0  0  0  0
    4.5900    3.0710    4.0810 C   0  0  0  0  0  0  0  0  0  0  0  0
    5.0960    1.7820    3.8400 C   0  0  0  0  0  0  0  0  0  0  0  0
    5.8160    1.2380    2.5850 C   0  0  0  0  0  0  0  0  0  0  0  0
    6.7660    0.4800    2.7290 O   0  0  0  0  0  0  0  0  0  0  0  0
    4.8060    0.8170    4.8180 C   0  0  0  0  0  0  0  0  0  0  0  0
    3.6810    0.3650    8.3160 C   0  0  0  0  0  0  0  0  0  0  0  0
    3.7620    1.7640    8.8060 C   0  0  0  0  0  0  0  0  0  0  0  0
    2.7040    2.3080    9.5510 C   0  0  0  0  0  0  0  0  0  0  0  0
    2.6220    3.6830    9.7890 C   0  0  0  0  0  0  0  0  0  0  0  0
    3.5780    4.5620    9.2600 C   0  0  0  0  0  0  0  0  0  0  0  0
    3.4060    6.0730    9.3520 C   0  0  2  0  0  0  0  0  0  0  0  0
    3.6520    6.5930   10.7640 C   0  0  0  0  0  0  0  0  0  0  0  0
    2.1520    6.4860    8.7180 N   0  0  0  0  0  0  0  0  0  0  0  0
    4.6900    4.0130    8.6090 C   0  0  0  0  0  0  0  0  0  0  0  0
    4.7960    2.6290    8.4170 C   0  0  0  0  0  0  0  0  0  0  0  0
    3.5520   -0.6780    9.2590 C   0  0  0  0  0  0  0  0  0  0  0  0
    3.3020   -4.8640   10.4720 H   0  0  0  0  0  0  0  0  0  0  0  0
    2.3150   -4.5240    9.0410 H   0  0  0  0  0  0  0  0  0  0  0  0
    4.1170   -4.5560    8.9350 H   0  0  0  0  0  0  0  0  0  0  0  0
    3.1590   -3.3320    7.1640 H   0  0  0  0  0  0  0  0  0  0  0  0
    3.3930   -1.5840    5.5060 H   0  0  0  0  0  0  0  0  0  0  0  0
    2.3270    2.3960    6.5470 H   0  0  0  0  0  0  0  0  0  0  0  0
    3.0950    4.2580    5.1440 H   0  0  0  0  0  0  0  0  0  0  0  0
    4.9220    3.9370    3.5250 H   0  0  0  0  0  0  0  0  0  0  0  0
    5.3300   -0.1350    4.7610 H   0  0  0  0  0  0  0  0  0  0  0  0
    1.8910    1.6720    9.8990 H   0  0  0  0  0  0  0  0  0  0  0  0
    1.7710    4.0630   10.3500 H   0  0  0  0  0  0  0  0  0  0  0  0
    4.1710    6.5350    8.7130 H   0  0  0  0  0  0  0  0  0  0  0  0
    3.5420    7.6800   10.8040 H   0  0  0  0  0  0  0  0  0  0  0  0
    4.6720    6.3440   11.0820 H   0  0  0  0  0  0  0  0  0  0  0  0
    2.9740    6.1510   11.4990 H   0  0  0  0  0  0  0  0  0  0  0  0
    2.1840    6.4870    7.7110 H   0  0  0  0  0  0  0  0  0  0  0  0
    5.4660    4.6550    8.1970 H   0  0  0  0  0  0  0  0  0  0  0  0
    5.6470    2.2400    7.8590 H   0  0  0  0  0  0  0  0  0  0  0  0
    3.5770   -0.4470   10.3230 H   0  0  0  0  0  0  0  0  0  0  0  0
   -8.3680    5.1680   11.2980 C   0  0  0  0  0  0  0  0  0  0  0  0
   -7.9840    5.9150   10.1520 O   0  0  0  0  0  0  0  0  0  0  0  0
   -6.6680    5.8710    9.7930 C   0  0  0  0  0  0  0  0  0  0  0  0
   -5.6590    5.1590   10.4220 C   0  0  0  0  0  0  0  0  0  0  0  0
   -4.3600    5.1860    9.9000 C   0  0  0  0  0  0  0  0  0  0  0  0
   -4.0370    5.9090    8.7290 C   0  0  0  0  0  0  0  0  0  0  0  0
   -2.6660    5.7780    8.1920 C   0  0  0  0  0  0  0  0  0  0  0  0
   -2.4440    5.1670    6.9480 C   0  0  0  0  0  0  0  0  0  0  0  0
   -1.1540    5.0040    6.4450 C   0  0  0  0  0  0  0  0  0  0  0  0
   -0.0550    5.4240    7.1910 C   0  0  0  0  0  0  0  0  0  0  0  0
   -0.2410    6.0400    8.4350 C   0  0  0  0  0  0  0  0  0  0  0  0
    0.9130    6.3880    9.3210 C   0  0  0  0  0  0  0  0  0  0  0  0
    0.7270    6.5050   10.5260 O   0  0  0  0  0  0  0  0  0  0  0  0
   -1.5460    6.2090    8.9280 C   0  0  0  0  0  0  0  0  0  0  0  0
   -5.0620    6.6560    8.0920 C   0  0  0  0  0  0  0  0  0  0  0  0
   -4.8900    7.4150    6.8290 C   0  0  0  0  0  0  0  0  0  0  0  0
   -5.8250    7.2510    5.7950 C   0  0  0  0  0  0  0  0  0  0  0  0
   -5.6910    7.9100    4.5760 C   0  0  0  0  0  0  0  0  0  0  0  0
   -4.5640    8.6900    4.3080 C   0  0  0  0  0  0  0  0  0  0  0  0
   -4.2790    9.1500    2.8790 C   0  0  2  0  0  0  0  0  0  0  0  0
   -5.3200   10.1230    2.3460 C   0  0  0  0  0  0  0  0  0  0  0  0
   -3.9980    7.9540    2.0400 N   0  0  0  0  0  0  0  0  0  0  0  0
   -3.6520    8.9210    5.3520 C   0  0  0  0  0  0  0  0  0  0  0  0
   -3.8290    8.3060    6.6020 C   0  0  0  0  0  0  0  0  0  0  0  0
   -6.3570    6.6230    8.6600 C   0  0  0  0  0  0  0  0  0  0  0  0
   -9.4440    5.3090   11.4400 H   0  0  0  0  0  0  0  0  0  0  0  0
   -8.1890    4.0980   11.1530 H   0  0  0  0  0  0  0  0  0  0  0  0
   -7.8600    5.5390   12.1930 H   0  0  0  0  0  0  0  0  0  0  0  0
   -5.8450    4.5610   11.3080 H   0  0  0  0  0  0  0  0  0  0  0  0
   -3.5920    4.5970   10.4020 H   0  0  0  0  0  0  0  0  0  0  0  0
   -3.2900    4.7980    6.3730 H   0  0  0  0  0  0  0  0  0  0  0  0
   -1.0000    4.5230    5.4850 H   0  0  0  0  0  0  0  0  0  0  0  0
    0.9330    5.2070    6.8000 H   0  0  0  0  0  0  0  0  0  0  0  0
   -1.6900    6.6590    9.9100 H   0  0  0  0  0  0  0  0  0  0  0  0
   -6.6650    6.5680    5.9120 H   0  0  0  0  0  0  0  0  0  0  0  0
   -6.4370    7.7300    3.8030 H   0  0  0  0  0  0  0  0  0  0  0  0
   -3.3200    9.6850    2.8900 H   0  0  0  0  0  0  0  0  0  0  0  0
   -5.0470   10.4670    1.3430 H   0  0  0  0  0  0  0  0  0  0  0  0
   -5.3920   11.0010    2.9960 H   0  0  0  0  0  0  0  0  0  0  0  0
   -6.3210    9.6840    2.2900 H   0  0  0  0  0  0  0  0  0  0  0  0
   -3.1860    7.4600    2.3450 H   0  0  0  0  0  0  0  0  0  0  0  0
   -2.7810    9.5560    5.2000 H   0  0  0  0  0  0  0  0  0  0  0  0
   -3.1060    8.5070    7.3900 H   0  0  0  0  0  0  0  0  0  0  0  0
   -7.1640    7.1880    8.1940 H   0  0  0  0  0  0  0  0  0  0  0  0
   -9.9790   -0.9950    0.6290 C   0  0  0  0  0  0  0  0  0  0  0  0
   -8.7700   -0.9300   -0.1260 O   0  0  0  0  0  0  0  0  0  0  0  0
   -7.9710    0.1550    0.1210 C   0  0  0  0  0  0  0  0  0  0  0  0
   -8.2490    1.1210    1.0710 C   0  0  0  0  0  0  0  0  0  0  0  0
   -7.3500    2.1470    1.2580 C   0  0  0  0  0  0  0  0  0  0  0  0
   -6.1240    2.2570    0.5380 C   0  0  0  0  0  0  0  0  0  0  0  0
   -5.2930    3.2950    1.2120 C   0  0  0  0  0  0  0  0  0  0  0  0
   -4.7660    2.9460    2.4780 C   0  0  0  0  0  0  0  0  0  0  0  0
   -4.3120    3.9020    3.3930 C   0  0  0  0  0  0  0  0  0  0  0  0
   -4.2890    5.2430    3.0400 C   0  0  0  0  0  0  0  0  0  0  0  0
   -4.8550    5.6550    1.8240 C   0  0  0  0  0  0  0  0  0  0  0  0
   -5.0350    7.1290    1.5680 C   0  0  0  0  0  0  0  0  0  0  0  0
   -6.0440    7.5270    1.0230 O   0  0  0  0  0  0  0  0  0  0  0  0
   -5.3880    4.6810    0.9380 C   0  0  0  0  0  0  0  0  0  0  0  0
   -5.8360    1.2900   -0.4990 C   0  0  0  0  0  0  0  0  0  0  0  0
   -4.6410    1.2290   -1.4320 C   0  0  0  0  0  0  0  0  0  0  0  0
   -3.7630    0.1260   -1.5340 C   0  0  0  0  0  0  0  0  0  0  0  0
   -2.4550    0.2290   -2.1300 C   0  0  0  0  0  0  0  0  0  0  0  0
   -2.0120    1.4500   -2.6650 C   0  0  0  0  0  0  0  0  0  0  0  0
   -0.5420    1.8840   -2.8970 C   0  0  2  0  0  0  0  0  0  0  0  0
    0.2800    0.9130   -3.7440 C   0  0  0  0  0  0  0  0  0  0  0  0
    0.2670    2.5240   -1.8030 N   0  0  0  0  0  0  0  0  0  0  0  0
   -3.0480    2.3570   -2.9330 C   0  0  0  0  0  0  0  0  0  0  0  0
   -4.3330    2.2570   -2.3190 C   0  0  0  0  0  0  0  0  0  0  0  0
   -6.7990    0.2570   -0.6540 C   0  0  0  0  0  0  0  0  0  0  0  0
  -10.5190   -1.8950    0.3260 H   0  0  0  0  0  0  0  0  0  0  0  0
   -9.7760   -1.0770    1.7040 H   0  0  0  0  0  0  0  0  0  0  0  0
  -10.6220   -0.1320    0.4190 H   0  0  0  0  0  0  0  0  0  0  0  0
   -9.1230    1.1000    1.7110 H   0  0  0  0  0  0  0  0  0  0  0  0
   -7.5700    2.8620    2.0550 H   0  0  0  0  0  0  0  0  0  0  0  0
   -4.7250    1.8960    2.7740 H   0  0  0  0  0  0  0  0  0  0  0  0
   -3.8980    3.5830    4.3460 H   0  0  0  0  0  0  0  0  0  0  0  0
   -3.8570    5.9480    3.7430 H   0  0  0  0  0  0  0  0  0  0  0  0
   -5.9210    5.0170    0.0520 H   0  0  0  0  0  0  0  0  0  0  0  0
   -4.0090   -0.8020   -1.0210 H   0  0  0  0  0  0  0  0  0  0  0  0
   -1.7640   -0.6010   -1.9890 H   0  0  0  0  0  0  0  0  0  0  0  0
   -0.6400    2.7590   -3.5520 H   0  0  0  0  0  0  0  0  0  0  0  0
    1.3550    1.1050   -3.6510 H   0  0  0  0  0  0  0  0  0  0  0  0
    0.0190    1.0480   -4.8010 H   0  0  0  0  0  0  0  0  0  0  0  0
    0.0880   -0.1360   -3.5140 H   0  0  0  0  0  0  0  0  0  0  0  0
    0.8150    3.3280   -2.0670 H   0  0  0  0  0  0  0  0  0  0  0  0
   -2.8280    3.2840   -3.4610 H   0  0  0  0  0  0  0  0  0  0  0  0
   -5.0140    3.0950   -2.4330 H   0  0  0  0  0  0  0  0  0  0  0  0
   -6.6320   -0.5140   -1.4070 H   0  0  0  0  0  0  0  0  0  0  0  0
   -2.3740    6.4100   -0.5170 C   0  0  0  0  0  0  0  0  0  0  0  0
   -1.8850    5.4130    0.4160 O   0  0  0  0  0  0  0  0  0  0  0  0
   -3.4630    6.3430   -0.6490 H   0  0  0  0  0  0  0  0  0  0  0  0
   -1.8960    6.3120   -1.4980 H   0  0  0  0  0  0  0  0  0  0  0  0
   -2.1550    7.4060   -0.1210 H   0  0  0  0  0  0  0  0  0  0  0  0
    1.1180    3.2480    2.4120 C   0  0  0  0  0  0  0  0  0  0  0  0
    2.1040    2.7690    1.3950 C   0  0  0  0  0  0  0  0  0  0  0  0
    3.1820    3.8400    1.3400 C   0  0  0  0  0  0  0  0  0  0  0  0
    2.3710    1.3980    2.0400 C   0  0  0  0  0  0  0  0  0  0  0  0
    1.5700    2.8620    0.0120 O   0  0  0  0  0  0  0  0  0  0  0  0
    0.6860    2.0540   -0.5960 C   0  0  0  0  0  0  0  0  0  0  0  0
    0.2930    1.0140   -0.1100 O   0  0  0  0  0  0  0  0  0  0  0  0
    1.4720    3.2320    3.4480 H   0  0  0  0  0  0  0  0  0  0  0  0
    0.6860    4.2150    2.1930 H   0  0  0  0  0  0  0  0  0  0  0  0
    0.3920    2.4630    2.3580 H   0  0  0  0  0  0  0  0  0  0  0  0
    2.8200    4.7840    1.7650 H   0  0  0  0  0  0  0  0  0  0  0  0
    3.4850    4.0620    0.3140 H   0  0  0  0  0  0  0  0  0  0  0  0
    4.0810    3.5970    1.8640 H   0  0  0  0  0  0  0  0  0  0  0  0
    1.5690    0.6850    1.8660 H   0  0  0  0  0  0  0  0  0  0  0  0
    3.2750    0.9450    1.7540 H   0  0  0  0  0  0  0  0  0  0  0  0
    2.4610    1.4130    3.1330 H   0  0  0  0  0  0  0  0  0  0  0  0
  1 27  1  0  0  0  0
  2  1  1  0  0  0  0
  2  3  1  0  0  0  0
  3  4  1  0  0  0  0
  4 29  1  0  0  0  0
  4  5  2  0  0  0  0
  5 30  1  0  0  0  0
  6  5  1  0  0  0  0
  6  7  1  0  0  0  0
  7  8  1  0  0  0  0
  8  9  2  0  0  0  0
  8 31  1  0  0  0  0
  9 32  1  0  0  0  0
 10 33  1  0  0  0  0
 10  9  1  0  0  0  0
 11 10  2  0  0  0  0
 12178  1  0  0  0  0
 12 11  1  0  0  0  0
 13 12  2  0  0  0  0
 14 11  1  0  0  0  0
 14  7  2  0  0  0  0
 15  6  2  0  0  0  0
 16 15  1  0  0  0  0
 16 17  1  0  0  0  0
 17 35  1  0  0  0  0
 18 17  2  0  0  0  0
 18 36  1  0  0  0  0
 19 20  1  0  0  0  0
 19 18  1  0  0  0  0
 20 37  1  6  0  0  0
 20 22  1  0  0  0  0
 21 20  1  0  0  0  0
 21 40  1  0  0  0  0
 22 56  1  0  0  0  0
 23 24  1  0  0  0  0
 23 19  2  0  0  0  0
 24 16  2  0  0  0  0
 25  3  2  0  0  0  0
 25 15  1  0  0  0  0
 26  1  1  0  0  0  0
 28  1  1  0  0  0  0
 34 14  1  0  0  0  0
 38 21  1  0  0  0  0
 39 21  1  0  0  0  0
 41 22  1  0  0  0  0
 42 23  1  0  0  0  0
 43 24  1  0  0  0  0
 44 25  1  0  0  0  0
 45 46  1  0  0  0  0
 45 70  1  0  0  0  0
 47 69  1  0  0  0  0
 47 46  1  0  0  0  0
 48 47  2  0  0  0  0
 49 50  2  0  0  0  0
 49 48  1  0  0  0  0
 50 59  1  0  0  0  0
 51 50  1  0  0  0  0
 52 51  1  0  0  0  0
 52 75  1  0  0  0  0
 53 76  1  0  0  0  0
 53 52  2  0  0  0  0
 54 53  1  0  0  0  0
 55 54  2  0  0  0  0
 55 58  1  0  0  0  0
 56 57  2  0  0  0  0
 56 55  1  0  0  0  0
 58 51  2  0  0  0  0
 59 60  1  0  0  0  0
 59 69  2  0  0  0  0
 60 61  1  0  0  0  0
 61 62  2  0  0  0  0
 61 79  1  0  0  0  0
 62 80  1  0  0  0  0
 63 64  1  0  0  0  0
 63 62  1  0  0  0  0
 64 81  1  6  0  0  0
 64 65  1  0  0  0  0
 65 82  1  0  0  0  0
 65 83  1  0  0  0  0
 65 84  1  0  0  0  0
 66100  1  0  0  0  0
 66 64  1  0  0  0  0
 67 63  2  0  0  0  0
 68 67  1  0  0  0  0
 68 60  2  0  0  0  0
 69 88  1  0  0  0  0
 71 45  1  0  0  0  0
 72 45  1  0  0  0  0
 73 48  1  0  0  0  0
 74 49  1  0  0  0  0
 77 54  1  0  0  0  0
 78 58  1  0  0  0  0
 85 66  1  0  0  0  0
 86 67  1  0  0  0  0
 87 68  1  0  0  0  0
 89114  1  0  0  0  0
 89116  1  0  0  0  0
 90 89  1  0  0  0  0
 91 90  1  0  0  0  0
 91 92  1  0  0  0  0
 92117  1  0  0  0  0
 93118  1  0  0  0  0
 93 92  2  0  0  0  0
 94 93  1  0  0  0  0
 95 94  1  0  0  0  0
 95102  1  0  0  0  0
 96 95  2  0  0  0  0
 97 96  1  0  0  0  0
 97 98  2  0  0  0  0
 98 99  1  0  0  0  0
 99102  2  0  0  0  0
 99100  1  0  0  0  0
100101  2  0  0  0  0
102122  1  0  0  0  0
103113  1  0  0  0  0
103 94  2  0  0  0  0
104103  1  0  0  0  0
105123  1  0  0  0  0
105104  2  0  0  0  0
106105  1  0  0  0  0
107106  2  0  0  0  0
107111  1  0  0  0  0
108125  1  1  0  0  0
108107  1  0  0  0  0
109108  1  0  0  0  0
109127  1  0  0  0  0
110129  1  0  0  0  0
110108  1  0  0  0  0
111112  2  0  0  0  0
112104  1  0  0  0  0
112131  1  0  0  0  0
113 91  2  0  0  0  0
115 89  1  0  0  0  0
119 96  1  0  0  0  0
120 97  1  0  0  0  0
121 98  1  0  0  0  0
124106  1  0  0  0  0
126109  1  0  0  0  0
128109  1  0  0  0  0
130111  1  0  0  0  0
132113  1  0  0  0  0
133159  1  0  0  0  0
134135  1  0  0  0  0
134133  1  0  0  0  0
135136  1  0  0  0  0
136137  2  0  0  0  0
136161  1  0  0  0  0
137162  1  0  0  0  0
138139  1  0  0  0  0
138137  1  0  0  0  0
139140  1  0  0  0  0
140163  1  0  0  0  0
140141  2  0  0  0  0
141164  1  0  0  0  0
142141  1  0  0  0  0
142165  1  0  0  0  0
143142  2  0  0  0  0
144143  1  0  0  0  0
144110  1  0  0  0  0
145144  2  0  0  0  0
146139  2  0  0  0  0
146143  1  0  0  0  0
147138  2  0  0  0  0
148147  1  0  0  0  0
149148  1  0  0  0  0
149167  1  0  0  0  0
150168  1  0  0  0  0
150149  2  0  0  0  0
151150  1  0  0  0  0
152169  1  6  0  0  0
152151  1  0  0  0  0
152154  1  0  0  0  0
153170  1  0  0  0  0
153172  1  0  0  0  0
153152  1  0  0  0  0
154187  1  0  0  0  0
155151  2  0  0  0  0
155156  1  0  0  0  0
156148  2  0  0  0  0
157147  1  0  0  0  0
157135  2  0  0  0  0
158133  1  0  0  0  0
160133  1  0  0  0  0
166146  1  0  0  0  0
171153  1  0  0  0  0
173154  1  0  0  0  0
174155  1  0  0  0  0
175156  1  0  0  0  0
176157  1  0  0  0  0
177181  1  0  0  0  0
177178  1  0  0  0  0
179177  1  0  0  0  0
180177  1  0  0  0  0
182189  1  0  0  0  0
183185  1  0  0  0  0
183182  1  0  0  0  0
184183  1  0  0  0  0
184192  1  0  0  0  0
184194  1  0  0  0  0
185197  1  0  0  0  0
186183  1  0  0  0  0
187188  2  0  0  0  0
187186  1  0  0  0  0
190182  1  0  0  0  0
191182  1  0  0  0  0
193184  1  0  0  0  0
195185  1  0  0  0  0
196185  1  0  0  0  0
M  END
