mop_trimer.pdb
  -OEChem-09082511223D

153161  0     1  0  0  0  0  0999 V2000
   -3.1970   -5.9230   -0.8530 C   0  0  0  0  0  0  0  0  0  0  0  0
   -4.0420   -6.0430   -1.7240 O   0  0  0  0  0  0  0  0  0  0  0  0
   -2.7840   -4.6230   -0.2650 C   0  0  0  0  0  0  0  0  0  0  0  0
   -1.7810   -4.5500    0.7080 C   0  0  0  0  0  0  0  0  0  0  0  0
   -1.5030   -3.3400    1.3320 C   0  0  0  0  0  0  0  0  0  0  0  0
   -2.1990   -2.1740    0.9820 C   0  0  0  0  0  0  0  0  0  0  0  0
   -1.8720   -0.9100    1.6530 C   0  0  0  0  0  0  0  0  0  0  0  0
   -0.5900   -0.3230    1.5660 C   0  0  0  0  0  0  0  0  0  0  0  0
   -0.3830    0.8760    2.2740 C   0  0  0  0  0  0  0  0  0  0  0  0
   -1.3670    1.4900    3.0530 C   0  0  0  0  0  0  0  0  0  0  0  0
   -0.9950    2.6760    3.6210 O   0  0  0  0  0  0  0  0  0  0  0  0
   -2.0340    3.5440    4.0610 C   0  0  0  0  0  0  0  0  0  0  0  0
   -2.6020    0.8770    3.1750 C   0  0  0  0  0  0  0  0  0  0  0  0
   -2.8570   -0.3020    2.4660 C   0  0  0  0  0  0  0  0  0  0  0  0
    0.5380   -0.8710    0.7610 C   0  0  0  0  0  0  0  0  0  0  0  0
    0.4010   -1.1750   -0.6000 C   0  0  0  0  0  0  0  0  0  0  0  0
    1.4900   -1.5870   -1.3670 C   0  0  0  0  0  0  0  0  0  0  0  0
    2.7450   -1.7180   -0.7800 C   0  0  0  0  0  0  0  0  0  0  0  0
    2.9370   -1.4510    0.5860 C   0  0  0  0  0  0  0  0  0  0  0  0
    1.8100   -1.0630    1.3390 C   0  0  0  0  0  0  0  0  0  0  0  0
    4.3050   -1.6780    1.2170 C   0  0  2  0  0  0  0  0  0  0  0  0
    4.4910   -1.2060    2.5920 N   0  0  0  0  0  0  0  0  0  0  0  0
    5.5240   -1.3280    0.3460 C   0  0  0  0  0  0  0  0  0  0  0  0
   -3.1810   -2.2450   -0.0180 C   0  0  0  0  0  0  0  0  0  0  0  0
   -3.4710   -3.4610   -0.6420 C   0  0  0  0  0  0  0  0  0  0  0  0
   -1.2170   -5.4290    1.0080 H   0  0  0  0  0  0  0  0  0  0  0  0
   -0.7290   -3.3050    2.0980 H   0  0  0  0  0  0  0  0  0  0  0  0
    0.5750    1.3700    2.1750 H   0  0  0  0  0  0  0  0  0  0  0  0
   -1.6350    4.5630    4.0550 H   0  0  0  0  0  0  0  0  0  0  0  0
   -2.3260    3.2950    5.0840 H   0  0  0  0  0  0  0  0  0  0  0  0
   -2.9060    3.5360    3.3990 H   0  0  0  0  0  0  0  0  0  0  0  0
   -3.3860    1.2910    3.8010 H   0  0  0  0  0  0  0  0  0  0  0  0
   -3.8360   -0.7680    2.5670 H   0  0  0  0  0  0  0  0  0  0  0  0
   -0.5620   -1.0750   -1.0930 H   0  0  0  0  0  0  0  0  0  0  0  0
    1.3570   -1.7950   -2.4250 H   0  0  0  0  0  0  0  0  0  0  0  0
    3.5700   -2.0490   -1.4070 H   0  0  0  0  0  0  0  0  0  0  0  0
    1.9130   -0.8950    2.4090 H   0  0  0  0  0  0  0  0  0  0  0  0
    4.3440   -2.7700    1.3390 H   0  0  0  0  0  0  0  0  0  0  0  0
    4.8490   -1.9050    3.2320 H   0  0  0  0  0  0  0  0  0  0  0  0
    6.3210   -0.8490    0.9260 H   0  0  0  0  0  0  0  0  0  0  0  0
    5.2800   -0.6730   -0.4970 H   0  0  0  0  0  0  0  0  0  0  0  0
    5.9540   -2.2400   -0.0830 H   0  0  0  0  0  0  0  0  0  0  0  0
   -3.7250   -1.3510   -0.3180 H   0  0  0  0  0  0  0  0  0  0  0  0
   -4.2460   -3.5040   -1.4040 H   0  0  0  0  0  0  0  0  0  0  0  0
    4.4360    0.0120    3.2150 C   0  0  0  0  0  0  0  0  0  0  0  0
    4.7580    0.0720    4.4020 O   0  0  0  0  0  0  0  0  0  0  0  0
    3.8930    1.2220    2.5620 C   0  0  0  0  0  0  0  0  0  0  0  0
    4.2220    1.6130    1.2690 C   0  0  0  0  0  0  0  0  0  0  0  0
    3.5760    2.6980    0.6730 C   0  0  0  0  0  0  0  0  0  0  0  0
    2.6180    3.4460    1.3700 C   0  0  0  0  0  0  0  0  0  0  0  0
    1.9660    4.6050    0.7340 C   0  0  0  0  0  0  0  0  0  0  0  0
    1.4030    4.5770   -0.5650 C   0  0  0  0  0  0  0  0  0  0  0  0
    0.9550    5.8000   -1.1040 C   0  0  0  0  0  0  0  0  0  0  0  0
    0.9470    6.9970   -0.3920 C   0  0  0  0  0  0  0  0  0  0  0  0
    0.4340    8.0750   -1.0540 O   0  0  0  0  0  0  0  0  0  0  0  0
   -0.2930    8.9970   -0.2480 C   0  0  0  0  0  0  0  0  0  0  0  0
    1.4390    7.0110    0.8990 C   0  0  0  0  0  0  0  0  0  0  0  0
    1.9550    5.8330    1.4440 C   0  0  0  0  0  0  0  0  0  0  0  0
    1.0520    3.3670   -1.3530 C   0  0  0  0  0  0  0  0  0  0  0  0
    0.0190    2.5420   -0.9140 C   0  0  0  0  0  0  0  0  0  0  0  0
   -0.6250    1.6530   -1.7660 C   0  0  0  0  0  0  0  0  0  0  0  0
   -0.1900    1.4980   -3.0800 C   0  0  0  0  0  0  0  0  0  0  0  0
    0.8800    2.2590   -3.5610 C   0  0  0  0  0  0  0  0  0  0  0  0
    1.5120    3.1670   -2.6740 C   0  0  0  0  0  0  0  0  0  0  0  0
    1.3660    2.1120   -4.9980 C   0  0  2  0  0  0  0  0  0  0  0  0
    1.9420    3.3260   -5.5730 N   0  0  0  0  0  0  0  0  0  0  0  0
    0.4320    1.4800   -6.0440 C   0  0  0  0  0  0  0  0  0  0  0  0
    2.3760    3.1080    2.7130 C   0  0  0  0  0  0  0  0  0  0  0  0
    3.0020    2.0060    3.3030 C   0  0  0  0  0  0  0  0  0  0  0  0
    4.9860    1.1020    0.7030 H   0  0  0  0  0  0  0  0  0  0  0  0
    3.8430    2.9660   -0.3480 H   0  0  0  0  0  0  0  0  0  0  0  0
    0.5090    5.7910   -2.0910 H   0  0  0  0  0  0  0  0  0  0  0  0
   -0.8750    9.6370   -0.9200 H   0  0  0  0  0  0  0  0  0  0  0  0
    0.3890    9.6360    0.3180 H   0  0  0  0  0  0  0  0  0  0  0  0
   -0.9980    8.4900    0.4190 H   0  0  0  0  0  0  0  0  0  0  0  0
    1.4590    7.9200    1.4900 H   0  0  0  0  0  0  0  0  0  0  0  0
    2.3760    5.8820    2.4470 H   0  0  0  0  0  0  0  0  0  0  0  0
   -0.3510    2.6430    0.1010 H   0  0  0  0  0  0  0  0  0  0  0  0
   -1.4750    1.0820   -1.4040 H   0  0  0  0  0  0  0  0  0  0  0  0
   -0.7200    0.7890   -3.7060 H   0  0  0  0  0  0  0  0  0  0  0  0
    2.3250    3.7980   -3.0330 H   0  0  0  0  0  0  0  0  0  0  0  0
    2.2170    1.4200   -4.9160 H   0  0  0  0  0  0  0  0  0  0  0  0
    2.7800    3.1730   -6.1190 H   0  0  0  0  0  0  0  0  0  0  0  0
   -0.3430    2.1690   -6.3880 H   0  0  0  0  0  0  0  0  0  0  0  0
   -0.0530    0.5650   -5.6950 H   0  0  0  0  0  0  0  0  0  0  0  0
    1.0100    1.2080   -6.9360 H   0  0  0  0  0  0  0  0  0  0  0  0
    1.6540    3.6700    3.3040 H   0  0  0  0  0  0  0  0  0  0  0  0
    2.7600    1.7390    4.3300 H   0  0  0  0  0  0  0  0  0  0  0  0
    1.4970    4.6070   -5.7690 C   0  0  0  0  0  0  0  0  0  0  0  0
    2.1810    5.3230   -6.5020 O   0  0  0  0  0  0  0  0  0  0  0  0
    0.3250    5.2230   -5.0740 C   0  0  0  0  0  0  0  0  0  0  0  0
   -0.8720    4.5900   -4.7470 C   0  0  0  0  0  0  0  0  0  0  0  0
   -1.8830    5.2650   -4.0290 C   0  0  0  0  0  0  0  0  0  0  0  0
   -1.7560    6.6060   -3.6540 C   0  0  0  0  0  0  0  0  0  0  0  0
   -2.8270    7.3730   -2.9520 C   0  0  0  0  0  0  0  0  0  0  0  0
   -3.6050    6.9290   -1.8470 C   0  0  0  0  0  0  0  0  0  0  0  0
   -4.5600    7.8090   -1.2820 C   0  0  0  0  0  0  0  0  0  0  0  0
   -4.7450    9.1080   -1.7420 C   0  0  0  0  0  0  0  0  0  0  0  0
   -5.6660    9.8410   -1.0480 O   0  0  0  0  0  0  0  0  0  0  0  0
   -5.6530   11.2450   -1.2730 C   0  0  0  0  0  0  0  0  0  0  0  0
   -4.0100    9.5440   -2.8300 C   0  0  0  0  0  0  0  0  0  0  0  0
   -3.0830    8.6840   -3.4270 C   0  0  0  0  0  0  0  0  0  0  0  0
   -3.4590    5.6430   -1.1410 C   0  0  0  0  0  0  0  0  0  0  0  0
   -2.4280    5.4690   -0.2210 C   0  0  0  0  0  0  0  0  0  0  0  0
   -2.3520    4.3190    0.5560 C   0  0  0  0  0  0  0  0  0  0  0  0
   -3.2860    3.2980    0.3970 C   0  0  0  0  0  0  0  0  0  0  0  0
   -4.3470    3.4350   -0.4990 C   0  0  0  0  0  0  0  0  0  0  0  0
   -4.4410    4.6380   -1.2230 C   0  0  0  0  0  0  0  0  0  0  0  0
   -5.3430    2.2940   -0.6560 C   0  0  2  0  0  0  0  0  0  0  0  0
   -5.4950    1.9300   -2.0560 N   0  0  0  0  0  0  0  0  0  0  0  0
   -6.6370    2.5300    0.1190 C   0  0  0  0  0  0  0  0  0  0  0  0
   -0.5580    7.2460   -4.0400 C   0  0  0  0  0  0  0  0  0  0  0  0
    0.4600    6.5720   -4.7310 C   0  0  0  0  0  0  0  0  0  0  0  0
   -1.0670    3.5660   -5.0250 H   0  0  0  0  0  0  0  0  0  0  0  0
   -2.7800    4.7110   -3.7750 H   0  0  0  0  0  0  0  0  0  0  0  0
   -5.1470    7.4790   -0.4250 H   0  0  0  0  0  0  0  0  0  0  0  0
   -6.3500   11.7020   -0.5640 H   0  0  0  0  0  0  0  0  0  0  0  0
   -6.0000   11.4820   -2.2840 H   0  0  0  0  0  0  0  0  0  0  0  0
   -4.6600   11.6670   -1.0850 H   0  0  0  0  0  0  0  0  0  0  0  0
   -4.1270   10.5380   -3.2470 H   0  0  0  0  0  0  0  0  0  0  0  0
   -2.5390    9.0630   -4.2920 H   0  0  0  0  0  0  0  0  0  0  0  0
   -1.6920    6.2500   -0.0790 H   0  0  0  0  0  0  0  0  0  0  0  0
   -1.5370    4.2140    1.2670 H   0  0  0  0  0  0  0  0  0  0  0  0
   -3.1760    2.3890    0.9760 H   0  0  0  0  0  0  0  0  0  0  0  0
   -5.3060    4.8170   -1.8550 H   0  0  0  0  0  0  0  0  0  0  0  0
   -4.8850    1.3950   -0.2210 H   0  0  0  0  0  0  0  0  0  0  0  0
   -4.6540    1.5950   -2.5010 H   0  0  0  0  0  0  0  0  0  0  0  0
   -7.1440    3.4510   -0.1800 H   0  0  0  0  0  0  0  0  0  0  0  0
   -6.4270    2.6150    1.1930 H   0  0  0  0  0  0  0  0  0  0  0  0
   -7.3320    1.6940   -0.0200 H   0  0  0  0  0  0  0  0  0  0  0  0
   -0.3730    8.2820   -3.7640 H   0  0  0  0  0  0  0  0  0  0  0  0
    1.3760    7.1100   -4.9710 H   0  0  0  0  0  0  0  0  0  0  0  0
   -3.1080   -8.2260   -0.4330 C   0  0  0  0  0  0  0  0  0  0  0  0
   -2.5730   -6.9290   -0.1930 O   0  0  0  0  0  0  0  0  0  0  0  0
   -4.0990   -8.2980    0.0260 H   0  0  0  0  0  0  0  0  0  0  0  0
   -2.4500   -8.9530    0.0520 H   0  0  0  0  0  0  0  0  0  0  0  0
   -3.1530   -8.4510   -1.5020 H   0  0  0  0  0  0  0  0  0  0  0  0
   -4.8310    3.4150   -6.1970 C   0  0  0  0  0  0  0  0  0  0  0  0
   -5.9360    3.6060   -5.1480 C   0  0  0  0  0  0  0  0  0  0  0  0
   -5.8660    5.0510   -4.6370 C   0  0  0  0  0  0  0  0  0  0  0  0
   -7.2980    3.3100   -5.7740 C   0  0  0  0  0  0  0  0  0  0  0  0
   -5.6120    2.6360   -4.1190 O   0  0  0  0  0  0  0  0  0  0  0  0
   -6.2550    2.6450   -2.9320 C   0  0  0  0  0  0  0  0  0  0  0  0
   -7.2590    3.2810   -2.6650 O   0  0  0  0  0  0  0  0  0  0  0  0
   -4.8870    4.1620   -6.9940 H   0  0  0  0  0  0  0  0  0  0  0  0
   -3.8410    3.4800   -5.7300 H   0  0  0  0  0  0  0  0  0  0  0  0
   -4.8870    2.4170   -6.6470 H   0  0  0  0  0  0  0  0  0  0  0  0
   -4.9160    5.2380   -4.1330 H   0  0  0  0  0  0  0  0  0  0  0  0
   -6.6550    5.2750   -3.9120 H   0  0  0  0  0  0  0  0  0  0  0  0
   -5.9630    5.7730   -5.4540 H   0  0  0  0  0  0  0  0  0  0  0  0
   -7.3570    2.2670   -6.1040 H   0  0  0  0  0  0  0  0  0  0  0  0
   -8.1110    3.4600   -5.0580 H   0  0  0  0  0  0  0  0  0  0  0  0
   -7.4860    3.9610   -6.6340 H   0  0  0  0  0  0  0  0  0  0  0  0
  1  3  1  0  0  0  0
  1134  1  0  0  0  0
  1  2  2  0  0  0  0
  3  4  2  0  0  0  0
  4 26  1  0  0  0  0
  4  5  1  0  0  0  0
  5 27  1  0  0  0  0
  5  6  2  0  0  0  0
  6  7  1  0  0  0  0
  7 14  2  0  0  0  0
  7  8  1  0  0  0  0
  8  9  2  0  0  0  0
  9 10  1  0  0  0  0
 10 13  2  0  0  0  0
 10 11  1  0  0  0  0
 11 12  1  0  0  0  0
 12 30  1  0  0  0  0
 13 32  1  0  0  0  0
 14 33  1  0  0  0  0
 13 14  1  0  0  0  0
 15 20  1  0  0  0  0
  8 15  1  0  0  0  0
 15 16  2  0  0  0  0
 17 18  2  0  0  0  0
 16 17  1  0  0  0  0
 18 19  1  0  0  0  0
 19 21  1  0  0  0  0
 19 20  2  0  0  0  0
 20 37  1  0  0  0  0
 21 38  1  0  0  0  0
 21 22  1  0  0  0  0
 22 45  1  0  0  0  0
 22 39  1  0  0  0  0
 23 40  1  0  0  0  0
 21 23  1  0  0  0  0
  6 24  1  0  0  0  0
  3 25  1  0  0  0  0
 24 25  2  0  0  0  0
  9 28  1  0  0  0  0
 12 29  1  0  0  0  0
 12 31  1  0  0  0  0
 16 34  1  0  0  0  0
 17 35  1  0  0  0  0
 18 36  1  0  0  0  0
 23 41  1  0  0  0  0
 23 42  1  0  0  0  0
 24 43  1  0  0  0  0
 25 44  1  0  0  0  0
 45 46  2  0  0  0  0
 45 47  1  0  0  0  0
 47 69  1  0  0  0  0
 47 48  2  0  0  0  0
 48 49  1  0  0  0  0
 49 50  2  0  0  0  0
 50 68  1  0  0  0  0
 50 51  1  0  0  0  0
 51 58  2  0  0  0  0
 51 52  1  0  0  0  0
 52 53  2  0  0  0  0
 53 54  1  0  0  0  0
 54 57  2  0  0  0  0
 54 55  1  0  0  0  0
 55 56  1  0  0  0  0
 56 74  1  0  0  0  0
 56 75  1  0  0  0  0
 57 58  1  0  0  0  0
 57 76  1  0  0  0  0
 58 77  1  0  0  0  0
 59 60  2  0  0  0  0
 52 59  1  0  0  0  0
 60 78  1  0  0  0  0
 61 79  1  0  0  0  0
 60 61  1  0  0  0  0
 61 62  2  0  0  0  0
 62 63  1  0  0  0  0
 63 64  2  0  0  0  0
 59 64  1  0  0  0  0
 65 82  1  0  0  0  0
 63 65  1  0  0  0  0
 65 66  1  0  0  0  0
 67 85  1  0  0  0  0
 65 67  1  0  0  0  0
 68 69  2  0  0  0  0
 68 87  1  0  0  0  0
 69 88  1  0  0  0  0
 48 70  1  0  0  0  0
 49 71  1  0  0  0  0
 53 72  1  0  0  0  0
 56 73  1  0  0  0  0
 62 80  1  0  0  0  0
 64 81  1  0  0  0  0
 66 83  1  0  0  0  0
 67 84  1  0  0  0  0
 67 86  1  0  0  0  0
 66 89  1  0  0  0  0
 89 91  1  0  0  0  0
 89 90  2  0  0  0  0
 91 92  2  0  0  0  0
 91113  1  0  0  0  0
 92 93  1  0  0  0  0
 93115  1  0  0  0  0
 93 94  2  0  0  0  0
 94 95  1  0  0  0  0
 95 96  1  0  0  0  0
 96 97  2  0  0  0  0
 96103  1  0  0  0  0
 97116  1  0  0  0  0
 97 98  1  0  0  0  0
 98 99  1  0  0  0  0
100119  1  0  0  0  0
 99100  1  0  0  0  0
100117  1  0  0  0  0
 98101  2  0  0  0  0
 95102  2  0  0  0  0
101102  1  0  0  0  0
103104  2  0  0  0  0
104122  1  0  0  0  0
104105  1  0  0  0  0
105123  1  0  0  0  0
105106  2  0  0  0  0
106124  1  0  0  0  0
106107  1  0  0  0  0
103108  1  0  0  0  0
107108  2  0  0  0  0
107109  1  0  0  0  0
109126  1  0  0  0  0
109111  1  0  0  0  0
109110  1  0  0  0  0
111129  1  0  0  0  0
112131  1  0  0  0  0
 94112  1  0  0  0  0
112113  2  0  0  0  0
 92114  1  0  0  0  0
100118  1  0  0  0  0
101120  1  0  0  0  0
102121  1  0  0  0  0
108125  1  0  0  0  0
110127  1  0  0  0  0
111128  1  0  0  0  0
111130  1  0  0  0  0
113132  1  0  0  0  0
133134  1  0  0  0  0
133135  1  0  0  0  0
133136  1  0  0  0  0
133137  1  0  0  0  0
138146  1  0  0  0  0
138139  1  0  0  0  0
139140  1  0  0  0  0
139142  1  0  0  0  0
140148  1  0  0  0  0
140149  1  0  0  0  0
139141  1  0  0  0  0
141152  1  0  0  0  0
142143  1  0  0  0  0
143144  2  0  0  0  0
110143  1  0  0  0  0
138145  1  0  0  0  0
138147  1  0  0  0  0
140150  1  0  0  0  0
141151  1  0  0  0  0
141153  1  0  0  0  0
M  END
> <atom.dprop.PartialCharge>
0.647110 -0.540100 -0.135310 -0.075720 -0.130520 -0.000550 -0.080490 0.008100 -0.140100 0.126920 -0.319640 0.112740 -0.211000 -0.085060 -0.039170 -0.103480 -0.129020 -0.105340 -0.100270 -0.106010 0.155520 -0.570780 -0.107620 -0.130520 -0.075720 0.152700 0.141920 0.172350 0.043710 0.043710 0.043710 0.137020 0.138960 0.136490 0.134920 0.138480 0.130390 0.080190 0.316050 0.044220 0.044220 0.044220 0.141920 0.152700 0.675620 -0.614860 -0.137800 -0.091250 -0.125130 -0.011850 -0.073400 0.008070 -0.148340 0.130600 -0.325990 0.112310 -0.202170 -0.084820 -0.039920 -0.109200 -0.128430 -0.111630 -0.107170 -0.106030 0.145970 -0.561800 -0.101090 -0.125130 -0.091250 0.144790 0.141180 0.154600 0.046290 0.046290 0.046290 0.140780 0.139000 0.136810 0.134420 0.135490 0.131550 0.090000 0.304170 0.044870 0.044870 0.044870 0.141180 0.144790 0.675340 -0.596970 -0.137760 -0.090350 -0.126560 -0.009560 -0.077230 0.005150 -0.144750 0.127980 -0.325240 0.112290 -0.203350 -0.081580 -0.040740 -0.106190 -0.131160 -0.107370 -0.102190 -0.107140 0.164530 -0.557250 -0.116280 -0.126560 -0.090350 0.143570 0.138760 0.158050 0.046290 0.046290 0.046290 0.140620 0.141750 0.138990 0.138780 0.139890 0.135540 0.084220 0.326740 0.047530 0.047530 0.047530 0.138760 0.143570 0.125990 -0.431230 0.050980 0.050980 0.050980 -0.113830 0.187320 -0.113830 -0.113830 -0.453390 0.751170 -0.602430 0.051590 0.051590 0.051590 0.051590 0.051590 0.051590 0.051590 0.051590 0.051590

$$$$
