mop_trimer.pdb
  -OEChem-08252511333D

153161  0     1  0  0  0  0  0999 V2000
   -3.1590   -5.9160   -0.8300 C   0  0  0  0  0  0  0  0  0  0  0  0
   -3.9950   -6.0610   -1.7050 O   0  0  0  0  0  0  0  0  0  0  0  0
   -2.7530   -4.6010   -0.2720 C   0  0  0  0  0  0  0  0  0  0  0  0
   -1.7550   -4.5070    0.7040 C   0  0  0  0  0  0  0  0  0  0  0  0
   -1.4980   -3.2890    1.3190 C   0  0  0  0  0  0  0  0  0  0  0  0
   -2.2060   -2.1350    0.9520 C   0  0  0  0  0  0  0  0  0  0  0  0
   -1.8940   -0.8680    1.6190 C   0  0  0  0  0  0  0  0  0  0  0  0
   -0.6110   -0.2820    1.5410 C   0  0  0  0  0  0  0  0  0  0  0  0
   -0.4100    0.9100    2.2620 C   0  0  0  0  0  0  0  0  0  0  0  0
   -1.3970    1.5190    3.0410 C   0  0  0  0  0  0  0  0  0  0  0  0
   -1.0280    2.6980    3.6250 O   0  0  0  0  0  0  0  0  0  0  0  0
   -2.0650    3.6020    3.9920 C   0  0  0  0  0  0  0  0  0  0  0  0
   -2.6330    0.9070    3.1520 C   0  0  0  0  0  0  0  0  0  0  0  0
   -2.8840   -0.2650    2.4300 C   0  0  0  0  0  0  0  0  0  0  0  0
    0.5220   -0.8260    0.7380 C   0  0  0  0  0  0  0  0  0  0  0  0
    0.3920   -1.1370   -0.6230 C   0  0  0  0  0  0  0  0  0  0  0  0
    1.4880   -1.5330   -1.3880 C   0  0  0  0  0  0  0  0  0  0  0  0
    2.7430   -1.6530   -0.7990 C   0  0  0  0  0  0  0  0  0  0  0  0
    2.9270   -1.3940    0.5690 C   0  0  0  0  0  0  0  0  0  0  0  0
    1.7930   -1.0130    1.3180 C   0  0  0  0  0  0  0  0  0  0  0  0
    4.2920   -1.6270    1.2070 C   0  0  2  0  0  0  0  0  0  0  0  0
    4.4590   -1.1940    2.5970 N   0  0  0  0  0  0  0  0  0  0  0  0
    5.5210   -1.2510    0.3600 C   0  0  0  0  0  0  0  0  0  0  0  0
   -3.1780   -2.2250   -0.0550 C   0  0  0  0  0  0  0  0  0  0  0  0
   -3.4490   -3.4520   -0.6680 C   0  0  0  0  0  0  0  0  0  0  0  0
   -1.1830   -5.3750    1.0180 H   0  0  0  0  0  0  0  0  0  0  0  0
   -0.7310   -3.2370    2.0900 H   0  0  0  0  0  0  0  0  0  0  0  0
    0.5480    1.4030    2.1700 H   0  0  0  0  0  0  0  0  0  0  0  0
   -1.6650    4.6170    3.8910 H   0  0  0  0  0  0  0  0  0  0  0  0
   -2.3450    3.4450    5.0360 H   0  0  0  0  0  0  0  0  0  0  0  0
   -2.9470    3.5400    3.3470 H   0  0  0  0  0  0  0  0  0  0  0  0
   -3.4180    1.3180    3.7780 H   0  0  0  0  0  0  0  0  0  0  0  0
   -3.8630   -0.7330    2.5220 H   0  0  0  0  0  0  0  0  0  0  0  0
   -0.5700   -1.0520   -1.1170 H   0  0  0  0  0  0  0  0  0  0  0  0
    1.3600   -1.7390   -2.4480 H   0  0  0  0  0  0  0  0  0  0  0  0
    3.5730   -1.9720   -1.4260 H   0  0  0  0  0  0  0  0  0  0  0  0
    1.8900   -0.8480    2.3890 H   0  0  0  0  0  0  0  0  0  0  0  0
    4.3340   -2.7230    1.3000 H   0  0  0  0  0  0  0  0  0  0  0  0
    4.7970   -1.9110    3.2260 H   0  0  0  0  0  0  0  0  0  0  0  0
    6.2800   -0.7230    0.9490 H   0  0  0  0  0  0  0  0  0  0  0  0
    5.2770   -0.6320   -0.5100 H   0  0  0  0  0  0  0  0  0  0  0  0
    6.0040   -2.1570   -0.0250 H   0  0  0  0  0  0  0  0  0  0  0  0
   -3.7280   -1.3400   -0.3700 H   0  0  0  0  0  0  0  0  0  0  0  0
   -4.2190   -3.5120   -1.4360 H   0  0  0  0  0  0  0  0  0  0  0  0
    4.3840    0.0080    3.2520 C   0  0  0  0  0  0  0  0  0  0  0  0
    4.6720    0.0370    4.4480 O   0  0  0  0  0  0  0  0  0  0  0  0
    3.8550    1.2330    2.6120 C   0  0  0  0  0  0  0  0  0  0  0  0
    4.1930    1.6310    1.3240 C   0  0  0  0  0  0  0  0  0  0  0  0
    3.5350    2.7010    0.7190 C   0  0  0  0  0  0  0  0  0  0  0  0
    2.5580    3.4320    1.4050 C   0  0  0  0  0  0  0  0  0  0  0  0
    1.8950    4.5750    0.7540 C   0  0  0  0  0  0  0  0  0  0  0  0
    1.3660    4.5350   -0.5600 C   0  0  0  0  0  0  0  0  0  0  0  0
    0.9320    5.7590   -1.1140 C   0  0  0  0  0  0  0  0  0  0  0  0
    0.8950    6.9560   -0.4030 C   0  0  0  0  0  0  0  0  0  0  0  0
    0.3920    8.0310   -1.0770 O   0  0  0  0  0  0  0  0  0  0  0  0
   -0.3330    8.9690   -0.2890 C   0  0  0  0  0  0  0  0  0  0  0  0
    1.3420    6.9740    0.9040 C   0  0  0  0  0  0  0  0  0  0  0  0
    1.8510    5.8010    1.4630 C   0  0  0  0  0  0  0  0  0  0  0  0
    1.0300    3.3220   -1.3550 C   0  0  0  0  0  0  0  0  0  0  0  0
   -0.0210    2.5040   -0.9260 C   0  0  0  0  0  0  0  0  0  0  0  0
   -0.6690    1.6270   -1.7890 C   0  0  0  0  0  0  0  0  0  0  0  0
   -0.2220    1.4670   -3.0940 C   0  0  0  0  0  0  0  0  0  0  0  0
    0.8590    2.2130   -3.5660 C   0  0  0  0  0  0  0  0  0  0  0  0
    1.4900    3.1120   -2.6680 C   0  0  0  0  0  0  0  0  0  0  0  0
    1.3440    2.0660   -5.0060 C   0  0  2  0  0  0  0  0  0  0  0  0
    1.9710    3.2670   -5.5510 N   0  0  0  0  0  0  0  0  0  0  0  0
    0.3910    1.4980   -6.0750 C   0  0  0  0  0  0  0  0  0  0  0  0
    2.3180    3.1000    2.7500 C   0  0  0  0  0  0  0  0  0  0  0  0
    2.9520    2.0060    3.3480 C   0  0  0  0  0  0  0  0  0  0  0  0
    4.9690    1.1340    0.7640 H   0  0  0  0  0  0  0  0  0  0  0  0
    3.8040    2.9690   -0.3010 H   0  0  0  0  0  0  0  0  0  0  0  0
    0.5130    5.7440   -2.1110 H   0  0  0  0  0  0  0  0  0  0  0  0
   -0.8920    9.6150   -0.9720 H   0  0  0  0  0  0  0  0  0  0  0  0
    0.3500    9.5990    0.2870 H   0  0  0  0  0  0  0  0  0  0  0  0
   -1.0580    8.4750    0.3690 H   0  0  0  0  0  0  0  0  0  0  0  0
    1.3360    7.8810    1.4970 H   0  0  0  0  0  0  0  0  0  0  0  0
    2.2420    5.8550    2.4780 H   0  0  0  0  0  0  0  0  0  0  0  0
   -0.3940    2.6050    0.0840 H   0  0  0  0  0  0  0  0  0  0  0  0
   -1.5330    1.0690   -1.4340 H   0  0  0  0  0  0  0  0  0  0  0  0
   -0.7550    0.7570   -3.7230 H   0  0  0  0  0  0  0  0  0  0  0  0
    2.3200    3.7360   -3.0210 H   0  0  0  0  0  0  0  0  0  0  0  0
    2.1620    1.3350   -4.9320 H   0  0  0  0  0  0  0  0  0  0  0  0
    2.8280    3.1000   -6.0630 H   0  0  0  0  0  0  0  0  0  0  0  0
   -0.2830    2.2560   -6.4860 H   0  0  0  0  0  0  0  0  0  0  0  0
   -0.2130    0.6560   -5.7320 H   0  0  0  0  0  0  0  0  0  0  0  0
    0.9770    1.1350   -6.9300 H   0  0  0  0  0  0  0  0  0  0  0  0
    1.5870    3.6550    3.3360 H   0  0  0  0  0  0  0  0  0  0  0  0
    2.7010    1.7340    4.3710 H   0  0  0  0  0  0  0  0  0  0  0  0
    1.5620    4.5640   -5.7320 C   0  0  0  0  0  0  0  0  0  0  0  0
    2.2990    5.2780   -6.4170 O   0  0  0  0  0  0  0  0  0  0  0  0
    0.3740    5.1910   -5.0750 C   0  0  0  0  0  0  0  0  0  0  0  0
   -0.8310    4.5640   -4.7580 C   0  0  0  0  0  0  0  0  0  0  0  0
   -1.8440    5.2370   -4.0400 C   0  0  0  0  0  0  0  0  0  0  0  0
   -1.7160    6.5760   -3.6590 C   0  0  0  0  0  0  0  0  0  0  0  0
   -2.7820    7.3410   -2.9460 C   0  0  0  0  0  0  0  0  0  0  0  0
   -3.5720    6.8870   -1.8520 C   0  0  0  0  0  0  0  0  0  0  0  0
   -4.5130    7.7720   -1.2700 C   0  0  0  0  0  0  0  0  0  0  0  0
   -4.6760    9.0850   -1.7010 C   0  0  0  0  0  0  0  0  0  0  0  0
   -5.5810    9.8150   -0.9860 O   0  0  0  0  0  0  0  0  0  0  0  0
   -5.6010   11.2150   -1.2340 C   0  0  0  0  0  0  0  0  0  0  0  0
   -3.9290    9.5290   -2.7770 C   0  0  0  0  0  0  0  0  0  0  0  0
   -3.0180    8.6660   -3.3930 C   0  0  0  0  0  0  0  0  0  0  0  0
   -3.4420    5.5950   -1.1580 C   0  0  0  0  0  0  0  0  0  0  0  0
   -2.4210    5.4130   -0.2300 C   0  0  0  0  0  0  0  0  0  0  0  0
   -2.3540    4.2630    0.5400 C   0  0  0  0  0  0  0  0  0  0  0  0
   -3.2820    3.2440    0.3650 C   0  0  0  0  0  0  0  0  0  0  0  0
   -4.3420    3.3860   -0.5300 C   0  0  0  0  0  0  0  0  0  0  0  0
   -4.4300    4.5950   -1.2450 C   0  0  0  0  0  0  0  0  0  0  0  0
   -5.3350    2.2480   -0.6960 C   0  0  2  0  0  0  0  0  0  0  0  0
   -5.4860    1.8960   -2.1020 N   0  0  0  0  0  0  0  0  0  0  0  0
   -6.6280    2.4660    0.0820 C   0  0  0  0  0  0  0  0  0  0  0  0
   -0.5160    7.2110   -4.0440 C   0  0  0  0  0  0  0  0  0  0  0  0
    0.5050    6.5390   -4.7320 C   0  0  0  0  0  0  0  0  0  0  0  0
   -1.0290    3.5400   -5.0340 H   0  0  0  0  0  0  0  0  0  0  0  0
   -2.7420    4.6780   -3.7890 H   0  0  0  0  0  0  0  0  0  0  0  0
   -5.1050    7.4340   -0.4190 H   0  0  0  0  0  0  0  0  0  0  0  0
   -6.3040   11.6670   -0.5290 H   0  0  0  0  0  0  0  0  0  0  0  0
   -5.9560   11.4270   -2.2470 H   0  0  0  0  0  0  0  0  0  0  0  0
   -4.6160   11.6620   -1.0570 H   0  0  0  0  0  0  0  0  0  0  0  0
   -4.0220   10.5360   -3.1680 H   0  0  0  0  0  0  0  0  0  0  0  0
   -2.4640    9.0570   -4.2460 H   0  0  0  0  0  0  0  0  0  0  0  0
   -1.6890    6.1970   -0.0740 H   0  0  0  0  0  0  0  0  0  0  0  0
   -1.5370    4.1510    1.2540 H   0  0  0  0  0  0  0  0  0  0  0  0
   -3.1730    2.3250    0.9310 H   0  0  0  0  0  0  0  0  0  0  0  0
   -5.2960    4.7840   -1.8710 H   0  0  0  0  0  0  0  0  0  0  0  0
   -4.8740    1.3430   -0.2740 H   0  0  0  0  0  0  0  0  0  0  0  0
   -4.6400    1.5770   -2.5500 H   0  0  0  0  0  0  0  0  0  0  0  0
   -7.1440    3.3860   -0.2100 H   0  0  0  0  0  0  0  0  0  0  0  0
   -6.4160    2.5460    1.1550 H   0  0  0  0  0  0  0  0  0  0  0  0
   -7.3170    1.6270   -0.0600 H   0  0  0  0  0  0  0  0  0  0  0  0
   -0.3260    8.2460   -3.7610 H   0  0  0  0  0  0  0  0  0  0  0  0
    1.4280    7.0740   -4.9570 H   0  0  0  0  0  0  0  0  0  0  0  0
   -3.1020   -8.1990   -0.2970 C   0  0  0  0  0  0  0  0  0  0  0  0
   -2.5460   -6.8990   -0.1260 O   0  0  0  0  0  0  0  0  0  0  0  0
   -4.0710   -8.2420    0.2090 H   0  0  0  0  0  0  0  0  0  0  0  0
   -2.4290   -8.9140    0.1840 H   0  0  0  0  0  0  0  0  0  0  0  0
   -3.1990   -8.4620   -1.3540 H   0  0  0  0  0  0  0  0  0  0  0  0
   -4.7710    3.5000   -6.1860 C   0  0  0  0  0  0  0  0  0  0  0  0
   -5.8930    3.6560   -5.1490 C   0  0  0  0  0  0  0  0  0  0  0  0
   -5.8420    5.0870   -4.5990 C   0  0  0  0  0  0  0  0  0  0  0  0
   -7.2430    3.3660   -5.8030 C   0  0  0  0  0  0  0  0  0  0  0  0
   -5.5780    2.6600   -4.1440 O   0  0  0  0  0  0  0  0  0  0  0  0
   -6.2420    2.6270   -2.9670 C   0  0  0  0  0  0  0  0  0  0  0  0
   -7.2560    3.2450   -2.6980 O   0  0  0  0  0  0  0  0  0  0  0  0
   -4.8120    4.2760   -6.9550 H   0  0  0  0  0  0  0  0  0  0  0  0
   -3.7890    3.5460   -5.7000 H   0  0  0  0  0  0  0  0  0  0  0  0
   -4.8200    2.5200   -6.6720 H   0  0  0  0  0  0  0  0  0  0  0  0
   -4.8900    5.2740   -4.1000 H   0  0  0  0  0  0  0  0  0  0  0  0
   -6.6270    5.2790   -3.8630 H   0  0  0  0  0  0  0  0  0  0  0  0
   -5.9540    5.8300   -5.3950 H   0  0  0  0  0  0  0  0  0  0  0  0
   -7.2880    2.3330   -6.1620 H   0  0  0  0  0  0  0  0  0  0  0  0
   -8.0670    3.4900   -5.0940 H   0  0  0  0  0  0  0  0  0  0  0  0
   -7.4240    4.0400   -6.6470 H   0  0  0  0  0  0  0  0  0  0  0  0
  1  3  1  0  0  0  0
  1134  1  0  0  0  0
  1  2  2  0  0  0  0
  3  4  2  0  0  0  0
  4 26  1  0  0  0  0
  4  5  1  0  0  0  0
  5 27  1  0  0  0  0
  5  6  2  0  0  0  0
  6  7  1  0  0  0  0
  7 14  2  0  0  0  0
  7  8  1  0  0  0  0
  8  9  2  0  0  0  0
  9 10  1  0  0  0  0
 10 13  2  0  0  0  0
 10 11  1  0  0  0  0
 11 12  1  0  0  0  0
 12 30  1  0  0  0  0
 13 32  1  0  0  0  0
 14 33  1  0  0  0  0
 13 14  1  0  0  0  0
 15 20  1  0  0  0  0
  8 15  1  0  0  0  0
 15 16  2  0  0  0  0
 17 18  2  0  0  0  0
 16 17  1  0  0  0  0
 18 19  1  0  0  0  0
 19 21  1  0  0  0  0
 19 20  2  0  0  0  0
 20 37  1  0  0  0  0
 21 38  1  0  0  0  0
 21 22  1  0  0  0  0
 22 39  1  0  0  0  0
 22 45  1  0  0  0  0
 23 40  1  0  0  0  0
 21 23  1  0  0  0  0
  6 24  1  0  0  0  0
  3 25  1  0  0  0  0
 24 25  2  0  0  0  0
  9 28  1  0  0  0  0
 12 29  1  0  0  0  0
 12 31  1  0  0  0  0
 16 34  1  0  0  0  0
 17 35  1  0  0  0  0
 18 36  1  0  0  0  0
 23 41  1  0  0  0  0
 23 42  1  0  0  0  0
 24 43  1  0  0  0  0
 25 44  1  0  0  0  0
 45 46  2  0  0  0  0
 45 47  1  0  0  0  0
 47 69  1  0  0  0  0
 47 48  2  0  0  0  0
 48 49  1  0  0  0  0
 49 50  2  0  0  0  0
 50 68  1  0  0  0  0
 50 51  1  0  0  0  0
 51 58  2  0  0  0  0
 51 52  1  0  0  0  0
 52 53  2  0  0  0  0
 53 54  1  0  0  0  0
 54 57  2  0  0  0  0
 54 55  1  0  0  0  0
 55 56  1  0  0  0  0
 56 74  1  0  0  0  0
 56 75  1  0  0  0  0
 57 58  1  0  0  0  0
 57 76  1  0  0  0  0
 58 77  1  0  0  0  0
 59 60  2  0  0  0  0
 52 59  1  0  0  0  0
 60 78  1  0  0  0  0
 61 79  1  0  0  0  0
 60 61  1  0  0  0  0
 61 62  2  0  0  0  0
 62 63  1  0  0  0  0
 63 64  2  0  0  0  0
 59 64  1  0  0  0  0
 65 82  1  0  0  0  0
 63 65  1  0  0  0  0
 65 66  1  0  0  0  0
 67 85  1  0  0  0  0
 65 67  1  0  0  0  0
 68 87  1  0  0  0  0
 68 69  2  0  0  0  0
 69 88  1  0  0  0  0
 48 70  1  0  0  0  0
 49 71  1  0  0  0  0
 53 72  1  0  0  0  0
 56 73  1  0  0  0  0
 62 80  1  0  0  0  0
 64 81  1  0  0  0  0
 66 83  1  0  0  0  0
 67 84  1  0  0  0  0
 67 86  1  0  0  0  0
 66 89  1  0  0  0  0
 89 91  1  0  0  0  0
 89 90  2  0  0  0  0
 91 92  2  0  0  0  0
 91113  1  0  0  0  0
 92 93  1  0  0  0  0
 93115  1  0  0  0  0
 93 94  2  0  0  0  0
 94 95  1  0  0  0  0
 95 96  1  0  0  0  0
 96 97  2  0  0  0  0
 96103  1  0  0  0  0
 97116  1  0  0  0  0
 97 98  1  0  0  0  0
 98 99  1  0  0  0  0
100119  1  0  0  0  0
 99100  1  0  0  0  0
100117  1  0  0  0  0
 98101  2  0  0  0  0
 95102  2  0  0  0  0
101102  1  0  0  0  0
103104  2  0  0  0  0
104122  1  0  0  0  0
104105  1  0  0  0  0
105123  1  0  0  0  0
105106  2  0  0  0  0
106124  1  0  0  0  0
106107  1  0  0  0  0
103108  1  0  0  0  0
107108  2  0  0  0  0
107109  1  0  0  0  0
109126  1  0  0  0  0
109111  1  0  0  0  0
109110  1  0  0  0  0
111129  1  0  0  0  0
112131  1  0  0  0  0
 94112  1  0  0  0  0
112113  2  0  0  0  0
 92114  1  0  0  0  0
100118  1  0  0  0  0
101120  1  0  0  0  0
102121  1  0  0  0  0
108125  1  0  0  0  0
110127  1  0  0  0  0
111128  1  0  0  0  0
111130  1  0  0  0  0
113132  1  0  0  0  0
133134  1  0  0  0  0
133136  1  0  0  0  0
133135  1  0  0  0  0
133137  1  0  0  0  0
138146  1  0  0  0  0
138139  1  0  0  0  0
139140  1  0  0  0  0
139142  1  0  0  0  0
140148  1  0  0  0  0
140149  1  0  0  0  0
139141  1  0  0  0  0
141152  1  0  0  0  0
142143  1  0  0  0  0
143144  2  0  0  0  0
110143  1  0  0  0  0
138145  1  0  0  0  0
138147  1  0  0  0  0
140150  1  0  0  0  0
141151  1  0  0  0  0
141153  1  0  0  0  0
M  END
> <atom.dprop.PartialCharge>
0.647110 -0.540110 -0.135300 -0.075720 -0.130510 -0.000530 -0.080490 0.008100 -0.140100 0.126940 -0.319650 0.112740 -0.211020 -0.085060 -0.039170 -0.103480 -0.129020 -0.105340 -0.100270 -0.106010 0.155520 -0.570780 -0.107620 -0.130510 -0.075720 0.152700 0.141920 0.172350 0.043700 0.043700 0.043700 0.137020 0.138970 0.136490 0.134920 0.138480 0.130390 0.080190 0.316040 0.044220 0.044220 0.044220 0.141920 0.152700 0.675630 -0.614850 -0.137800 -0.091250 -0.125130 -0.011850 -0.073400 0.008070 -0.148340 0.130590 -0.325990 0.112310 -0.202170 -0.084820 -0.039920 -0.109200 -0.128430 -0.111630 -0.107170 -0.106030 0.145970 -0.561810 -0.101090 -0.125130 -0.091250 0.144780 0.141180 0.154600 0.046290 0.046290 0.046290 0.140790 0.139000 0.136810 0.134420 0.135490 0.131550 0.090000 0.304170 0.044870 0.044870 0.044870 0.141180 0.144780 0.675340 -0.596960 -0.137770 -0.090350 -0.126560 -0.009560 -0.077230 0.005150 -0.144750 0.127980 -0.325240 0.112290 -0.203350 -0.081580 -0.040740 -0.106190 -0.131160 -0.107370 -0.102190 -0.107130 0.164530 -0.557240 -0.116280 -0.126560 -0.090350 0.143570 0.138750 0.158050 0.046290 0.046290 0.046290 0.140620 0.141750 0.138990 0.138780 0.139890 0.135540 0.084220 0.326740 0.047530 0.047530 0.047530 0.138750 0.143570 0.125990 -0.431230 0.050980 0.050980 0.050980 -0.113830 0.187320 -0.113830 -0.113830 -0.453380 0.751170 -0.602430 0.051590 0.051590 0.051590 0.051590 0.051590 0.051590 0.051590 0.051590 0.051590

$$$$
