mop_trimer.pdb
  -OEChem-09092515113D

153161  0     1  0  0  0  0  0999 V2000
   -3.1170   -5.8180   -0.9580 C   0  0  0  0  0  0  0  0  0  0  0  0
   -4.0630   -6.0020   -1.7030 O   0  0  0  0  0  0  0  0  0  0  0  0
   -2.7230   -4.4940   -0.4150 C   0  0  0  0  0  0  0  0  0  0  0  0
   -1.7340   -4.3990    0.5710 C   0  0  0  0  0  0  0  0  0  0  0  0
   -1.5040   -3.1900    1.2030 C   0  0  0  0  0  0  0  0  0  0  0  0
   -2.2220   -2.0450    0.8410 C   0  0  0  0  0  0  0  0  0  0  0  0
   -1.9060   -0.7870    1.5130 C   0  0  0  0  0  0  0  0  0  0  0  0
   -0.6150   -0.2230    1.4380 C   0  0  0  0  0  0  0  0  0  0  0  0
   -0.4010    0.9530    2.1800 C   0  0  0  0  0  0  0  0  0  0  0  0
   -1.3790    1.5670    2.9720 C   0  0  0  0  0  0  0  0  0  0  0  0
   -1.0020    2.7340    3.5700 O   0  0  0  0  0  0  0  0  0  0  0  0
   -2.0190    3.6910    3.8580 C   0  0  0  0  0  0  0  0  0  0  0  0
   -2.6210    0.9660    3.0820 C   0  0  0  0  0  0  0  0  0  0  0  0
   -2.8870   -0.1890    2.3390 C   0  0  0  0  0  0  0  0  0  0  0  0
    0.5170   -0.7720    0.6240 C   0  0  0  0  0  0  0  0  0  0  0  0
    0.3950   -1.0940   -0.7340 C   0  0  0  0  0  0  0  0  0  0  0  0
    1.5010   -1.4580   -1.5050 C   0  0  0  0  0  0  0  0  0  0  0  0
    2.7620   -1.5500   -0.9210 C   0  0  0  0  0  0  0  0  0  0  0  0
    2.9340   -1.3120    0.4510 C   0  0  0  0  0  0  0  0  0  0  0  0
    1.7890   -0.9550    1.1990 C   0  0  0  0  0  0  0  0  0  0  0  0
    4.2940   -1.5500    1.1020 C   0  0  2  0  0  0  0  0  0  0  0  0
    4.4020   -1.2020    2.5230 N   0  0  0  0  0  0  0  0  0  0  0  0
    5.5500   -1.1070    0.3270 C   0  0  0  0  0  0  0  0  0  0  0  0
   -3.1900   -2.1310   -0.1740 C   0  0  0  0  0  0  0  0  0  0  0  0
   -3.4400   -3.3550   -0.7990 C   0  0  0  0  0  0  0  0  0  0  0  0
   -1.1500   -5.2590    0.8840 H   0  0  0  0  0  0  0  0  0  0  0  0
   -0.7450   -3.1360    1.9830 H   0  0  0  0  0  0  0  0  0  0  0  0
    0.5600    1.4370    2.0860 H   0  0  0  0  0  0  0  0  0  0  0  0
   -1.6120    4.6830    3.6300 H   0  0  0  0  0  0  0  0  0  0  0  0
   -2.2650    3.6600    4.9220 H   0  0  0  0  0  0  0  0  0  0  0  0
   -2.9280    3.5720    3.2620 H   0  0  0  0  0  0  0  0  0  0  0  0
   -3.3970    1.3800    3.7160 H   0  0  0  0  0  0  0  0  0  0  0  0
   -3.8720   -0.6470    2.4260 H   0  0  0  0  0  0  0  0  0  0  0  0
   -0.5690   -1.0340   -1.2300 H   0  0  0  0  0  0  0  0  0  0  0  0
    1.3760   -1.6580   -2.5660 H   0  0  0  0  0  0  0  0  0  0  0  0
    3.6000   -1.8400   -1.5500 H   0  0  0  0  0  0  0  0  0  0  0  0
    1.8740   -0.8080    2.2730 H   0  0  0  0  0  0  0  0  0  0  0  0
    4.3560   -2.6490    1.1220 H   0  0  0  0  0  0  0  0  0  0  0  0
    4.6470   -1.9730    3.1320 H   0  0  0  0  0  0  0  0  0  0  0  0
    6.1960   -0.4520    0.9240 H   0  0  0  0  0  0  0  0  0  0  0  0
    5.3270   -0.5980   -0.6170 H   0  0  0  0  0  0  0  0  0  0  0  0
    6.1700   -1.9770    0.0840 H   0  0  0  0  0  0  0  0  0  0  0  0
   -3.7490   -1.2500   -0.4790 H   0  0  0  0  0  0  0  0  0  0  0  0
   -4.2100   -3.4210   -1.5670 H   0  0  0  0  0  0  0  0  0  0  0  0
    4.2590   -0.0450    3.2480 C   0  0  0  0  0  0  0  0  0  0  0  0
    4.4260   -0.1050    4.4660 O   0  0  0  0  0  0  0  0  0  0  0  0
    3.7790    1.2250    2.6490 C   0  0  0  0  0  0  0  0  0  0  0  0
    4.1100    1.6430    1.3640 C   0  0  0  0  0  0  0  0  0  0  0  0
    3.4410    2.7040    0.7620 C   0  0  0  0  0  0  0  0  0  0  0  0
    2.4610    3.4150    1.4530 C   0  0  0  0  0  0  0  0  0  0  0  0
    1.7690    4.5260    0.7860 C   0  0  0  0  0  0  0  0  0  0  0  0
    1.2650    4.4660   -0.5370 C   0  0  0  0  0  0  0  0  0  0  0  0
    0.8410    5.6860   -1.0990 C   0  0  0  0  0  0  0  0  0  0  0  0
    0.7890    6.8930   -0.3950 C   0  0  0  0  0  0  0  0  0  0  0  0
    0.2830    7.9620   -1.0780 O   0  0  0  0  0  0  0  0  0  0  0  0
   -0.4120    8.9270   -0.2960 C   0  0  0  0  0  0  0  0  0  0  0  0
    1.2040    6.9220    0.9200 C   0  0  0  0  0  0  0  0  0  0  0  0
    1.7020    5.7550    1.4930 C   0  0  0  0  0  0  0  0  0  0  0  0
    0.9370    3.2430   -1.3430 C   0  0  0  0  0  0  0  0  0  0  0  0
   -0.1410    2.4480   -0.9540 C   0  0  0  0  0  0  0  0  0  0  0  0
   -0.7950    1.5820   -1.8350 C   0  0  0  0  0  0  0  0  0  0  0  0
   -0.3190    1.4050   -3.1240 C   0  0  0  0  0  0  0  0  0  0  0  0
    0.7970    2.1260   -3.5620 C   0  0  0  0  0  0  0  0  0  0  0  0
    1.4320    3.0140   -2.6410 C   0  0  0  0  0  0  0  0  0  0  0  0
    1.2940    1.9770   -4.9970 C   0  0  2  0  0  0  0  0  0  0  0  0
    2.0160    3.1490   -5.4780 N   0  0  0  0  0  0  0  0  0  0  0  0
    0.3210    1.5310   -6.1110 C   0  0  0  0  0  0  0  0  0  0  0  0
    2.2500    3.0960    2.8070 C   0  0  0  0  0  0  0  0  0  0  0  0
    2.8890    2.0010    3.3970 C   0  0  0  0  0  0  0  0  0  0  0  0
    4.8720    1.1600    0.7850 H   0  0  0  0  0  0  0  0  0  0  0  0
    3.6980    2.9690   -0.2610 H   0  0  0  0  0  0  0  0  0  0  0  0
    0.4370    5.6620   -2.0990 H   0  0  0  0  0  0  0  0  0  0  0  0
   -0.9750    9.5690   -0.9810 H   0  0  0  0  0  0  0  0  0  0  0  0
    0.2930    9.5590    0.2510 H   0  0  0  0  0  0  0  0  0  0  0  0
   -1.1310    8.4600    0.3870 H   0  0  0  0  0  0  0  0  0  0  0  0
    1.1780    7.8300    1.5100 H   0  0  0  0  0  0  0  0  0  0  0  0
    2.0740    5.8180    2.5150 H   0  0  0  0  0  0  0  0  0  0  0  0
   -0.5320    2.5430    0.0440 H   0  0  0  0  0  0  0  0  0  0  0  0
   -1.6760    1.0440   -1.4980 H   0  0  0  0  0  0  0  0  0  0  0  0
   -0.8420    0.7020   -3.7630 H   0  0  0  0  0  0  0  0  0  0  0  0
    2.2800    3.6090   -2.9710 H   0  0  0  0  0  0  0  0  0  0  0  0
    2.0480    1.1800   -4.9330 H   0  0  0  0  0  0  0  0  0  0  0  0
    2.9130    2.9560   -5.9090 H   0  0  0  0  0  0  0  0  0  0  0  0
   -0.1570    2.3790   -6.6140 H   0  0  0  0  0  0  0  0  0  0  0  0
   -0.4650    0.8490   -5.7850 H   0  0  0  0  0  0  0  0  0  0  0  0
    0.8820    1.0140   -6.9000 H   0  0  0  0  0  0  0  0  0  0  0  0
    1.5230    3.6480    3.4000 H   0  0  0  0  0  0  0  0  0  0  0  0
    2.6360    1.7210    4.4190 H   0  0  0  0  0  0  0  0  0  0  0  0
    1.6890    4.4760   -5.6060 C   0  0  0  0  0  0  0  0  0  0  0  0
    2.5240    5.1890   -6.1700 O   0  0  0  0  0  0  0  0  0  0  0  0
    0.4680    5.1250   -5.0200 C   0  0  0  0  0  0  0  0  0  0  0  0
   -0.7600    4.5180   -4.7470 C   0  0  0  0  0  0  0  0  0  0  0  0
   -1.7860    5.1900   -4.0430 C   0  0  0  0  0  0  0  0  0  0  0  0
   -1.6590    6.5220   -3.6500 C   0  0  0  0  0  0  0  0  0  0  0  0
   -2.7350    7.2900   -2.9440 C   0  0  0  0  0  0  0  0  0  0  0  0
   -3.5680    6.8390   -1.8740 C   0  0  0  0  0  0  0  0  0  0  0  0
   -4.4990    7.7370   -1.3030 C   0  0  0  0  0  0  0  0  0  0  0  0
   -4.6150    9.0600   -1.7130 C   0  0  0  0  0  0  0  0  0  0  0  0
   -5.5080    9.8040   -0.9990 O   0  0  0  0  0  0  0  0  0  0  0  0
   -5.5470   11.1940   -1.2870 C   0  0  0  0  0  0  0  0  0  0  0  0
   -3.8290    9.5030   -2.7610 C   0  0  0  0  0  0  0  0  0  0  0  0
   -2.9290    8.6280   -3.3730 C   0  0  0  0  0  0  0  0  0  0  0  0
   -3.4630    5.5500   -1.1630 C   0  0  0  0  0  0  0  0  0  0  0  0
   -2.4300    5.3790   -0.2520 C   0  0  0  0  0  0  0  0  0  0  0  0
   -2.3390    4.2330    0.5180 C   0  0  0  0  0  0  0  0  0  0  0  0
   -3.2660    3.2090    0.3640 C   0  0  0  0  0  0  0  0  0  0  0  0
   -4.3580    3.3530   -0.4820 C   0  0  0  0  0  0  0  0  0  0  0  0
   -4.4680    4.5630   -1.1950 C   0  0  0  0  0  0  0  0  0  0  0  0
   -5.3500    2.2010   -0.5940 C   0  0  2  0  0  0  0  0  0  0  0  0
   -5.5410    1.8190   -1.9780 N   0  0  0  0  0  0  0  0  0  0  0  0
   -6.6150    2.4160    0.2300 C   0  0  0  0  0  0  0  0  0  0  0  0
   -0.4440    7.1490   -4.0110 C   0  0  0  0  0  0  0  0  0  0  0  0
    0.5970    6.4700   -4.6670 C   0  0  0  0  0  0  0  0  0  0  0  0
   -0.9670    3.4990   -5.0320 H   0  0  0  0  0  0  0  0  0  0  0  0
   -2.6830    4.6310   -3.8040 H   0  0  0  0  0  0  0  0  0  0  0  0
   -5.1150    7.4040   -0.4670 H   0  0  0  0  0  0  0  0  0  0  0  0
   -6.2700   11.6550   -0.6070 H   0  0  0  0  0  0  0  0  0  0  0  0
   -5.8890   11.3710   -2.3110 H   0  0  0  0  0  0  0  0  0  0  0  0
   -4.5730   11.6620   -1.1070 H   0  0  0  0  0  0  0  0  0  0  0  0
   -3.8760   10.5220   -3.1290 H   0  0  0  0  0  0  0  0  0  0  0  0
   -2.3420    9.0210   -4.2030 H   0  0  0  0  0  0  0  0  0  0  0  0
   -1.7010    6.1640   -0.1110 H   0  0  0  0  0  0  0  0  0  0  0  0
   -1.5020    4.1270    1.2010 H   0  0  0  0  0  0  0  0  0  0  0  0
   -3.1250    2.2850    0.9070 H   0  0  0  0  0  0  0  0  0  0  0  0
   -5.3650    4.7570   -1.7710 H   0  0  0  0  0  0  0  0  0  0  0  0
   -4.8660    1.3110   -0.1680 H   0  0  0  0  0  0  0  0  0  0  0  0
   -4.6990    1.4960   -2.4340 H   0  0  0  0  0  0  0  0  0  0  0  0
   -7.1700    3.3080   -0.0730 H   0  0  0  0  0  0  0  0  0  0  0  0
   -6.3620    2.5380    1.2900 H   0  0  0  0  0  0  0  0  0  0  0  0
   -7.2840    1.5520    0.1470 H   0  0  0  0  0  0  0  0  0  0  0  0
   -0.2480    8.1800   -3.7170 H   0  0  0  0  0  0  0  0  0  0  0  0
    1.5350    6.9950   -4.8460 H   0  0  0  0  0  0  0  0  0  0  0  0
   -2.9850   -8.0430   -0.2610 C   0  0  0  0  0  0  0  0  0  0  0  0
   -2.3600   -6.7700   -0.3610 O   0  0  0  0  0  0  0  0  0  0  0  0
   -3.8910   -7.9520    0.3480 H   0  0  0  0  0  0  0  0  0  0  0  0
   -2.2920   -8.7090    0.2600 H   0  0  0  0  0  0  0  0  0  0  0  0
   -3.2100   -8.4550   -1.2460 H   0  0  0  0  0  0  0  0  0  0  0  0
   -4.6650    3.4390   -5.9970 C   0  0  0  0  0  0  0  0  0  0  0  0
   -5.8260    3.6210   -5.0070 C   0  0  0  0  0  0  0  0  0  0  0  0
   -5.7470    5.0410   -4.4370 C   0  0  0  0  0  0  0  0  0  0  0  0
   -7.1590    3.3980   -5.7130 C   0  0  0  0  0  0  0  0  0  0  0  0
   -5.5870    2.5910   -4.0120 O   0  0  0  0  0  0  0  0  0  0  0  0
   -6.2780    2.5750   -2.8450 C   0  0  0  0  0  0  0  0  0  0  0  0
   -7.2680    3.2200   -2.5790 O   0  0  0  0  0  0  0  0  0  0  0  0
   -4.5900    4.2730   -6.7010 H   0  0  0  0  0  0  0  0  0  0  0  0
   -3.7110    3.3510   -5.4630 H   0  0  0  0  0  0  0  0  0  0  0  0
   -4.7730    2.5100   -6.5660 H   0  0  0  0  0  0  0  0  0  0  0  0
   -4.7970    5.1910   -3.9250 H   0  0  0  0  0  0  0  0  0  0  0  0
   -6.5380    5.2450   -3.7110 H   0  0  0  0  0  0  0  0  0  0  0  0
   -5.8220    5.7990   -5.2220 H   0  0  0  0  0  0  0  0  0  0  0  0
   -7.2280    2.3770   -6.1020 H   0  0  0  0  0  0  0  0  0  0  0  0
   -8.0000    3.5310   -5.0250 H   0  0  0  0  0  0  0  0  0  0  0  0
   -7.2860    4.1020   -6.5410 H   0  0  0  0  0  0  0  0  0  0  0  0
  1  3  1  0  0  0  0
  1134  1  0  0  0  0
  1  2  2  0  0  0  0
  3  4  2  0  0  0  0
  4 26  1  0  0  0  0
  4  5  1  0  0  0  0
  5 27  1  0  0  0  0
  5  6  2  0  0  0  0
  6  7  1  0  0  0  0
  7 14  2  0  0  0  0
  7  8  1  0  0  0  0
  8  9  2  0  0  0  0
  9 10  1  0  0  0  0
 10 13  2  0  0  0  0
 10 11  1  0  0  0  0
 11 12  1  0  0  0  0
 12 30  1  0  0  0  0
 13 32  1  0  0  0  0
 14 33  1  0  0  0  0
 13 14  1  0  0  0  0
 15 20  1  0  0  0  0
  8 15  1  0  0  0  0
 15 16  2  0  0  0  0
 17 18  2  0  0  0  0
 16 17  1  0  0  0  0
 18 19  1  0  0  0  0
 19 21  1  0  0  0  0
 19 20  2  0  0  0  0
 20 37  1  0  0  0  0
 21 38  1  0  0  0  0
 21 22  1  0  0  0  0
 22 39  1  0  0  0  0
 22 45  1  0  0  0  0
 23 40  1  0  0  0  0
 21 23  1  0  0  0  0
  6 24  1  0  0  0  0
  3 25  1  0  0  0  0
 24 25  2  0  0  0  0
  9 28  1  0  0  0  0
 12 29  1  0  0  0  0
 12 31  1  0  0  0  0
 16 34  1  0  0  0  0
 17 35  1  0  0  0  0
 18 36  1  0  0  0  0
 23 41  1  0  0  0  0
 23 42  1  0  0  0  0
 24 43  1  0  0  0  0
 25 44  1  0  0  0  0
 45 46  2  0  0  0  0
 45 47  1  0  0  0  0
 47 69  1  0  0  0  0
 47 48  2  0  0  0  0
 48 49  1  0  0  0  0
 49 50  2  0  0  0  0
 50 68  1  0  0  0  0
 50 51  1  0  0  0  0
 51 58  2  0  0  0  0
 51 52  1  0  0  0  0
 52 53  2  0  0  0  0
 53 54  1  0  0  0  0
 54 57  2  0  0  0  0
 54 55  1  0  0  0  0
 55 56  1  0  0  0  0
 56 74  1  0  0  0  0
 56 75  1  0  0  0  0
 57 58  1  0  0  0  0
 57 76  1  0  0  0  0
 58 77  1  0  0  0  0
 59 60  2  0  0  0  0
 52 59  1  0  0  0  0
 60 78  1  0  0  0  0
 61 79  1  0  0  0  0
 60 61  1  0  0  0  0
 61 62  2  0  0  0  0
 62 63  1  0  0  0  0
 63 64  2  0  0  0  0
 59 64  1  0  0  0  0
 65 82  1  0  0  0  0
 63 65  1  0  0  0  0
 65 66  1  0  0  0  0
 67 85  1  0  0  0  0
 65 67  1  0  0  0  0
 68 69  2  0  0  0  0
 68 87  1  0  0  0  0
 69 88  1  0  0  0  0
 48 70  1  0  0  0  0
 49 71  1  0  0  0  0
 53 72  1  0  0  0  0
 56 73  1  0  0  0  0
 62 80  1  0  0  0  0
 64 81  1  0  0  0  0
 66 83  1  0  0  0  0
 67 84  1  0  0  0  0
 67 86  1  0  0  0  0
 66 89  1  0  0  0  0
 89 91  1  0  0  0  0
 89 90  2  0  0  0  0
 91 92  2  0  0  0  0
 91113  1  0  0  0  0
 92 93  1  0  0  0  0
 93115  1  0  0  0  0
 93 94  2  0  0  0  0
 94 95  1  0  0  0  0
 95 96  1  0  0  0  0
 96 97  2  0  0  0  0
 96103  1  0  0  0  0
 97116  1  0  0  0  0
 97 98  1  0  0  0  0
 98 99  1  0  0  0  0
100119  1  0  0  0  0
 99100  1  0  0  0  0
100117  1  0  0  0  0
 98101  2  0  0  0  0
 95102  2  0  0  0  0
101102  1  0  0  0  0
103104  2  0  0  0  0
104122  1  0  0  0  0
104105  1  0  0  0  0
105123  1  0  0  0  0
105106  2  0  0  0  0
106124  1  0  0  0  0
106107  1  0  0  0  0
103108  1  0  0  0  0
107108  2  0  0  0  0
107109  1  0  0  0  0
109126  1  0  0  0  0
109111  1  0  0  0  0
109110  1  0  0  0  0
111129  1  0  0  0  0
112131  1  0  0  0  0
 94112  1  0  0  0  0
112113  2  0  0  0  0
 92114  1  0  0  0  0
100118  1  0  0  0  0
101120  1  0  0  0  0
102121  1  0  0  0  0
108125  1  0  0  0  0
110127  1  0  0  0  0
111128  1  0  0  0  0
111130  1  0  0  0  0
113132  1  0  0  0  0
133136  1  0  0  0  0
133135  1  0  0  0  0
133134  1  0  0  0  0
133137  1  0  0  0  0
138146  1  0  0  0  0
138139  1  0  0  0  0
139140  1  0  0  0  0
139142  1  0  0  0  0
140148  1  0  0  0  0
140149  1  0  0  0  0
141152  1  0  0  0  0
139141  1  0  0  0  0
142143  1  0  0  0  0
143144  2  0  0  0  0
110143  1  0  0  0  0
138145  1  0  0  0  0
138147  1  0  0  0  0
140150  1  0  0  0  0
141151  1  0  0  0  0
141153  1  0  0  0  0
M  END
> <atom.dprop.PartialCharge>
0.647110 -0.540110 -0.135300 -0.075720 -0.130510 -0.000530 -0.080490 0.008100 -0.140100 0.126940 -0.319650 0.112740 -0.211020 -0.085060 -0.039170 -0.103480 -0.129020 -0.105340 -0.100270 -0.106010 0.155520 -0.570780 -0.107620 -0.130510 -0.075720 0.152700 0.141920 0.172350 0.043700 0.043700 0.043700 0.137020 0.138970 0.136490 0.134920 0.138480 0.130390 0.080190 0.316040 0.044220 0.044220 0.044220 0.141920 0.152700 0.675630 -0.614850 -0.137800 -0.091250 -0.125130 -0.011850 -0.073400 0.008070 -0.148340 0.130590 -0.325990 0.112310 -0.202170 -0.084820 -0.039920 -0.109200 -0.128430 -0.111630 -0.107170 -0.106030 0.145970 -0.561810 -0.101090 -0.125130 -0.091250 0.144780 0.141180 0.154600 0.046290 0.046290 0.046290 0.140790 0.139000 0.136810 0.134420 0.135490 0.131550 0.090000 0.304170 0.044870 0.044870 0.044870 0.141180 0.144780 0.675340 -0.596960 -0.137770 -0.090350 -0.126560 -0.009560 -0.077230 0.005150 -0.144750 0.127980 -0.325240 0.112290 -0.203350 -0.081580 -0.040740 -0.106190 -0.131160 -0.107370 -0.102190 -0.107130 0.164530 -0.557240 -0.116280 -0.126560 -0.090350 0.143570 0.138750 0.158050 0.046290 0.046290 0.046290 0.140620 0.141750 0.138990 0.138780 0.139890 0.135540 0.084220 0.326740 0.047530 0.047530 0.047530 0.138750 0.143570 0.125990 -0.431230 0.050980 0.050980 0.050980 -0.113830 0.187320 -0.113830 -0.113830 -0.453380 0.751170 -0.602430 0.051590 0.051590 0.051590 0.051590 0.051590 0.051590 0.051590 0.051590 0.051590

$$$$
