mom_tetramer.pdb
 OpenBabel09242412313D

197208  0  0  1  0  0  0  0  0999 V2000
   -2.6440    5.4680    0.8660 C   0  0  0  0  0  0  0  0  0  0  0  0
   -1.5160    4.6620    0.5720 O   0  0  0  0  0  0  0  0  0  0  0  0
   -1.7270    3.3130    0.4540 C   0  0  0  0  0  0  0  0  0  0  0  0
   -2.9320    2.6420    0.6240 C   0  0  0  0  0  0  0  0  0  0  0  0
   -2.9860    1.2460    0.4960 C   0  0  0  0  0  0  0  0  0  0  0  0
   -1.8350    0.5010    0.1940 C   0  0  0  0  0  0  0  0  0  0  0  0
   -1.9590   -0.9760    0.1190 C   0  0  0  0  0  0  0  0  0  0  0  0
   -2.8380   -1.6020   -0.7850 C   0  0  0  0  0  0  0  0  0  0  0  0
   -2.9220   -3.0020   -0.8750 C   0  0  0  0  0  0  0  0  0  0  0  0
   -3.9590   -3.5920   -1.7680 C   0  0  0  0  0  0  0  0  0  0  0  0
   -4.7010   -2.9250   -2.4710 O   0  0  0  0  0  0  0  0  0  0  0  0
   -2.1050   -3.8080   -0.0670 C   0  0  0  0  0  0  0  0  0  0  0  0
   -1.2390   -3.2100    0.8410 C   0  0  0  0  0  0  0  0  0  0  0  0
   -1.1750   -1.8130    0.9370 C   0  0  0  0  0  0  0  0  0  0  0  0
   -0.5990    1.1790    0.0120 C   0  0  0  0  0  0  0  0  0  0  0  0
    0.6360    0.4690   -0.3720 C   0  0  0  0  0  0  0  0  0  0  0  0
    1.8040    0.5380    0.4120 C   0  0  0  0  0  0  0  0  0  0  0  0
    2.9290   -0.2490    0.1070 C   0  0  0  0  0  0  0  0  0  0  0  0
    4.2110   -0.1310    0.9120 C   0  0  1  0  0  0  0  0  0  0  0  0
    4.5090   -1.4200    1.6830 C   0  0  0  0  0  0  0  0  0  0  0  0
    5.3730    0.3400    0.1240 N   0  0  0  0  0  0  0  0  0  0  0  0
    2.8250   -1.1580   -0.9530 C   0  0  0  0  0  0  0  0  0  0  0  0
    1.7310   -1.1530   -1.8080 C   0  0  0  0  0  0  0  0  0  0  0  0
    0.6510   -0.3330   -1.5250 C   0  0  0  0  0  0  0  0  0  0  0  0
   -0.5800    2.5750    0.1590 C   0  0  0  0  0  0  0  0  0  0  0  0
   -3.0710    5.2130    1.8390 H   0  0  0  0  0  0  0  0  0  0  0  0
   -3.3900    5.4080    0.0710 H   0  0  0  0  0  0  0  0  0  0  0  0
   -2.2940    6.5060    0.9180 H   0  0  0  0  0  0  0  0  0  0  0  0
   -3.8510    3.1700    0.8440 H   0  0  0  0  0  0  0  0  0  0  0  0
   -3.9480    0.7490    0.6250 H   0  0  0  0  0  0  0  0  0  0  0  0
   -3.4690   -0.9940   -1.4290 H   0  0  0  0  0  0  0  0  0  0  0  0
   -2.1510   -4.8920   -0.1210 H   0  0  0  0  0  0  0  0  0  0  0  0
   -0.6010   -3.8280    1.4680 H   0  0  0  0  0  0  0  0  0  0  0  0
   -0.4690   -1.3820    1.6450 H   0  0  0  0  0  0  0  0  0  0  0  0
    1.8200    1.1880    1.2850 H   0  0  0  0  0  0  0  0  0  0  0  0
    4.0670    0.6630    1.6590 H   0  0  0  0  0  0  0  0  0  0  0  0
    5.3780   -1.2870    2.3370 H   0  0  0  0  0  0  0  0  0  0  0  0
    3.6560   -1.7120    2.3040 H   0  0  0  0  0  0  0  0  0  0  0  0
    4.7290   -2.2560    1.0120 H   0  0  0  0  0  0  0  0  0  0  0  0
    6.0790    0.6150    0.7960 H   0  0  0  0  0  0  0  0  0  0  0  0
    3.6360   -1.8450   -1.1730 H   0  0  0  0  0  0  0  0  0  0  0  0
    1.7270   -1.7840   -2.6910 H   0  0  0  0  0  0  0  0  0  0  0  0
   -0.2120   -0.3590   -2.1860 H   0  0  0  0  0  0  0  0  0  0  0  0
    0.3600    3.1120    0.0170 H   0  0  0  0  0  0  0  0  0  0  0  0
    7.1440   -7.0620   -7.6720 C   0  0  0  0  0  0  0  0  0  0  0  0
    7.3450   -5.6820   -7.9440 O   0  0  0  0  0  0  0  0  0  0  0  0
    6.9020   -4.7850   -7.0130 C   0  0  0  0  0  0  0  0  0  0  0  0
    6.2570   -5.0800   -5.8170 C   0  0  0  0  0  0  0  0  0  0  0  0
    5.8500   -4.0440   -4.9650 C   0  0  0  0  0  0  0  0  0  0  0  0
    6.0820   -2.6910   -5.2820 C   0  0  0  0  0  0  0  0  0  0  0  0
    5.5940   -1.6290   -4.3660 C   0  0  0  0  0  0  0  0  0  0  0  0
    6.0260   -1.5510   -3.0290 C   0  0  0  0  0  0  0  0  0  0  0  0
    5.6110   -0.4980   -2.1920 C   0  0  0  0  0  0  0  0  0  0  0  0
    6.0100   -0.5240   -0.7530 C   0  0  0  0  0  0  0  0  0  0  0  0
    6.8950   -1.2720   -0.3510 O   0  0  0  0  0  0  0  0  0  0  0  0
    4.7750    0.5020   -2.7000 C   0  0  0  0  0  0  0  0  0  0  0  0
    4.3080    0.4200   -4.0090 C   0  0  0  0  0  0  0  0  0  0  0  0
    4.7090   -0.6360   -4.8270 C   0  0  0  0  0  0  0  0  0  0  0  0
    6.7690   -2.3930   -6.4940 C   0  0  0  0  0  0  0  0  0  0  0  0
    7.1220   -1.0120   -6.8790 C   0  0  0  0  0  0  0  0  0  0  0  0
    6.6980   -0.4510   -8.1010 C   0  0  0  0  0  0  0  0  0  0  0  0
    6.9280    0.9040   -8.3950 C   0  0  0  0  0  0  0  0  0  0  0  0
    6.5290    1.5020   -9.7330 C   0  0  1  0  0  0  0  0  0  0  0  0
    5.4210    2.5450   -9.5620 C   0  0  0  0  0  0  0  0  0  0  0  0
    7.6700    2.0240  -10.5230 N   0  0  0  0  0  0  0  0  0  0  0  0
    7.5200    1.6960   -7.4030 C   0  0  0  0  0  0  0  0  0  0  0  0
    8.0500    1.1380   -6.2490 C   0  0  0  0  0  0  0  0  0  0  0  0
    7.8640   -0.2110   -5.9960 C   0  0  0  0  0  0  0  0  0  0  0  0
    7.1530   -3.4520   -7.3390 C   0  0  0  0  0  0  0  0  0  0  0  0
    6.0780   -7.3010   -7.6020 H   0  0  0  0  0  0  0  0  0  0  0  0
    7.6810   -7.3690   -6.7700 H   0  0  0  0  0  0  0  0  0  0  0  0
    7.5560   -7.6270   -8.5140 H   0  0  0  0  0  0  0  0  0  0  0  0
    6.0500   -6.1020   -5.5170 H   0  0  0  0  0  0  0  0  0  0  0  0
    5.3330   -4.3020   -4.0410 H   0  0  0  0  0  0  0  0  0  0  0  0
    6.6910   -2.3160   -2.6300 H   0  0  0  0  0  0  0  0  0  0  0  0
    4.4210    1.3100   -2.0630 H   0  0  0  0  0  0  0  0  0  0  0  0
    3.6180    1.1700   -4.3870 H   0  0  0  0  0  0  0  0  0  0  0  0
    4.3450   -0.6660   -5.8530 H   0  0  0  0  0  0  0  0  0  0  0  0
    6.1520   -1.0730   -8.8100 H   0  0  0  0  0  0  0  0  0  0  0  0
    6.1190    0.6940  -10.3570 H   0  0  0  0  0  0  0  0  0  0  0  0
    5.0800    2.9130  -10.5360 H   0  0  0  0  0  0  0  0  0  0  0  0
    4.5610    2.1220   -9.0330 H   0  0  0  0  0  0  0  0  0  0  0  0
    5.7670    3.4110   -8.9880 H   0  0  0  0  0  0  0  0  0  0  0  0
    7.3180    2.1750  -11.4610 H   0  0  0  0  0  0  0  0  0  0  0  0
    7.6370    2.7650   -7.5480 H   0  0  0  0  0  0  0  0  0  0  0  0
    8.6050    1.7590   -5.5510 H   0  0  0  0  0  0  0  0  0  0  0  0
    8.2530   -0.6270   -5.0700 H   0  0  0  0  0  0  0  0  0  0  0  0
    7.6780   -3.2350   -8.2680 H   0  0  0  0  0  0  0  0  0  0  0  0
   12.3270    9.9670   -4.6850 C   0  0  0  0  0  0  0  0  0  0  0  0
   13.1330    9.1030   -5.4750 O   0  0  0  0  0  0  0  0  0  0  0  0
   12.5330    7.9990   -6.0120 C   0  0  0  0  0  0  0  0  0  0  0  0
   11.2030    7.6220   -5.8610 C   0  0  0  0  0  0  0  0  0  0  0  0
   10.7310    6.4470   -6.4640 C   0  0  0  0  0  0  0  0  0  0  0  0
   11.5740    5.6230   -7.2340 C   0  0  0  0  0  0  0  0  0  0  0  0
   11.0380    4.3630   -7.8120 C   0  0  0  0  0  0  0  0  0  0  0  0
    9.9480    4.3650   -8.7030 C   0  0  0  0  0  0  0  0  0  0  0  0
    9.4950    3.1740   -9.3010 C   0  0  0  0  0  0  0  0  0  0  0  0
    8.2730    3.2190  -10.1610 C   0  0  0  0  0  0  0  0  0  0  0  0
    7.8220    4.2860  -10.5650 O   0  0  0  0  0  0  0  0  0  0  0  0
   10.1440    1.9670   -9.0180 C   0  0  0  0  0  0  0  0  0  0  0  0
   11.1970    1.9410   -8.1070 C   0  0  0  0  0  0  0  0  0  0  0  0
   11.6350    3.1250   -7.5120 C   0  0  0  0  0  0  0  0  0  0  0  0
   12.9280    6.0290   -7.4170 C   0  0  0  0  0  0  0  0  0  0  0  0
   13.8620    5.2750   -8.2780 C   0  0  0  0  0  0  0  0  0  0  0  0
   15.0770    4.7600   -7.7840 C   0  0  0  0  0  0  0  0  0  0  0  0
   15.8860    3.9260   -8.5740 C   0  0  0  0  0  0  0  0  0  0  0  0
   17.2250    3.4220   -8.0650 C   0  0  1  0  0  0  0  0  0  0  0  0
   17.2140    1.9030   -7.8690 C   0  0  0  0  0  0  0  0  0  0  0  0
   18.3840    3.8810   -8.8630 N   0  0  0  0  0  0  0  0  0  0  0  0
   15.4090    3.5590   -9.8390 C   0  0  0  0  0  0  0  0  0  0  0  0
   14.2780    4.1490  -10.3860 C   0  0  0  0  0  0  0  0  0  0  0  0
   13.5190    5.0130   -9.6130 C   0  0  0  0  0  0  0  0  0  0  0  0
   13.3800    7.2040   -6.7870 C   0  0  0  0  0  0  0  0  0  0  0  0
   11.9360    9.4490   -3.8040 H   0  0  0  0  0  0  0  0  0  0  0  0
   11.5190   10.4070   -5.2790 H   0  0  0  0  0  0  0  0  0  0  0  0
   12.9650   10.7850   -4.3340 H   0  0  0  0  0  0  0  0  0  0  0  0
   10.5040    8.2150   -5.2800 H   0  0  0  0  0  0  0  0  0  0  0  0
    9.6890    6.1690   -6.3180 H   0  0  0  0  0  0  0  0  0  0  0  0
    9.4440    5.3020   -8.9360 H   0  0  0  0  0  0  0  0  0  0  0  0
    9.7910    1.0310   -9.4420 H   0  0  0  0  0  0  0  0  0  0  0  0
   11.6670    0.9960   -7.8480 H   0  0  0  0  0  0  0  0  0  0  0  0
   12.4750    3.0790   -6.8210 H   0  0  0  0  0  0  0  0  0  0  0  0
   15.3720    4.9860   -6.7590 H   0  0  0  0  0  0  0  0  0  0  0  0
   17.4000    3.8710   -7.0770 H   0  0  0  0  0  0  0  0  0  0  0  0
   18.1490    1.5670   -7.4090 H   0  0  0  0  0  0  0  0  0  0  0  0
   16.3840    1.5980   -7.2220 H   0  0  0  0  0  0  0  0  0  0  0  0
   17.1040    1.3700   -8.8190 H   0  0  0  0  0  0  0  0  0  0  0  0
   19.2060    3.6910   -8.3040 H   0  0  0  0  0  0  0  0  0  0  0  0
   15.9550    2.8470  -10.4500 H   0  0  0  0  0  0  0  0  0  0  0  0
   13.9930    3.9330  -11.4110 H   0  0  0  0  0  0  0  0  0  0  0  0
   12.6160    5.4420  -10.0430 H   0  0  0  0  0  0  0  0  0  0  0  0
   14.4120    7.5240   -6.9190 H   0  0  0  0  0  0  0  0  0  0  0  0
   17.0570    0.0100  -18.9400 C   0  0  0  0  0  0  0  0  0  0  0  0
   17.6260    1.2970  -18.7450 O   0  0  0  0  0  0  0  0  0  0  0  0
   17.5700    1.8280  -17.4850 C   0  0  0  0  0  0  0  0  0  0  0  0
   16.9940    1.2370  -16.3660 C   0  0  0  0  0  0  0  0  0  0  0  0
   17.0010    1.9120  -15.1390 C   0  0  0  0  0  0  0  0  0  0  0  0
   17.5860    3.1880  -15.0010 C   0  0  0  0  0  0  0  0  0  0  0  0
   17.5280    3.8730  -13.6880 C   0  0  0  0  0  0  0  0  0  0  0  0
   18.1000    3.3040  -12.5360 C   0  0  0  0  0  0  0  0  0  0  0  0
   18.1130    4.0030  -11.3170 C   0  0  0  0  0  0  0  0  0  0  0  0
   18.6350    3.3120  -10.1010 C   0  0  0  0  0  0  0  0  0  0  0  0
   19.2870    2.2770  -10.1860 O   0  0  0  0  0  0  0  0  0  0  0  0
   17.5630    5.2890  -11.2490 C   0  0  0  0  0  0  0  0  0  0  0  0
   16.9500    5.8450  -12.3690 C   0  0  0  0  0  0  0  0  0  0  0  0
   16.9290    5.1390  -13.5720 C   0  0  0  0  0  0  0  0  0  0  0  0
   18.2000    3.7840  -16.1390 C   0  0  0  0  0  0  0  0  0  0  0  0
   18.9110    5.0840  -16.0750 C   0  0  0  0  0  0  0  0  0  0  0  0
   18.5510    6.1740  -16.8990 C   0  0  0  0  0  0  0  0  0  0  0  0
   19.1830    7.4280  -16.7820 C   0  0  0  0  0  0  0  0  0  0  0  0
   18.7830    8.6070  -17.6720 C   0  0  1  0  0  0  0  0  0  0  0  0
   17.9090    9.6160  -16.9200 C   0  0  0  0  0  0  0  0  0  0  0  0
   19.9500    9.2090  -18.3220 N   0  0  0  0  0  0  0  0  0  0  0  0
   20.1760    7.5660  -15.8000 C   0  0  0  0  0  0  0  0  0  0  0  0
   20.5730    6.4980  -15.0060 C   0  0  0  0  0  0  0  0  0  0  0  0
   19.9550    5.2650  -15.1530 C   0  0  0  0  0  0  0  0  0  0  0  0
   18.1670    3.0860  -17.3630 C   0  0  0  0  0  0  0  0  0  0  0  0
   15.9820    0.0140  -18.7290 H   0  0  0  0  0  0  0  0  0  0  0  0
   17.5770   -0.7470  -18.3450 H   0  0  0  0  0  0  0  0  0  0  0  0
   17.1850   -0.2520  -19.9950 H   0  0  0  0  0  0  0  0  0  0  0  0
   16.5270    0.2580  -16.4100 H   0  0  0  0  0  0  0  0  0  0  0  0
   16.5310    1.4350  -14.2800 H   0  0  0  0  0  0  0  0  0  0  0  0
   18.5380    2.3080  -12.5840 H   0  0  0  0  0  0  0  0  0  0  0  0
   17.5370    5.8360  -10.3100 H   0  0  0  0  0  0  0  0  0  0  0  0
   16.4750    6.8200  -12.3030 H   0  0  0  0  0  0  0  0  0  0  0  0
   16.4590    5.6000  -14.4390 H   0  0  0  0  0  0  0  0  0  0  0  0
   17.7510    6.0410  -17.6250 H   0  0  0  0  0  0  0  0  0  0  0  0
   18.1800    8.2100  -18.5000 H   0  0  0  0  0  0  0  0  0  0  0  0
   17.5980   10.4260  -17.5890 H   0  0  0  0  0  0  0  0  0  0  0  0
   17.0160    9.1390  -16.5070 H   0  0  0  0  0  0  0  0  0  0  0  0
   18.4240   10.0710  -16.0690 H   0  0  0  0  0  0  0  0  0  0  0  0
   19.9180    9.3690  -19.3190 H   0  0  0  0  0  0  0  0  0  0  0  0
   20.6680    8.5150  -15.6280 H   0  0  0  0  0  0  0  0  0  0  0  0
   21.3540    6.6350  -14.2640 H   0  0  0  0  0  0  0  0  0  0  0  0
   20.2710    4.4470  -14.5100 H   0  0  0  0  0  0  0  0  0  0  0  0
   18.6380    3.5220  -18.2420 H   0  0  0  0  0  0  0  0  0  0  0  0
   -5.3890   -5.4320   -1.6810 C   0  0  0  0  0  0  0  0  0  0  0  0
   -4.0650   -4.9230   -1.5320 O   0  0  0  0  0  0  0  0  0  0  0  0
   -5.9370   -5.1930   -0.7640 H   0  0  0  0  0  0  0  0  0  0  0  0
   -5.3390   -6.5190   -1.7780 H   0  0  0  0  0  0  0  0  0  0  0  0
   -5.9120   -5.0230   -2.5500 H   0  0  0  0  0  0  0  0  0  0  0  0
   24.4450   10.3630  -18.1660 C   0  0  0  0  0  0  0  0  0  0  0  0
   23.1330   10.6190  -17.4090 C   0  0  0  0  0  0  0  0  0  0  0  0
   23.3000   10.0230  -15.9950 C   0  0  0  0  0  0  0  0  0  0  0  0
   22.8920   12.1330  -17.3520 C   0  0  0  0  0  0  0  0  0  0  0  0
   22.0740    9.9780  -18.1830 O   0  0  0  0  0  0  0  0  0  0  0  0
   20.8240   10.0180  -17.6450 C   0  0  0  0  0  0  0  0  0  0  0  0
   20.5350   10.6300  -16.6340 O   0  0  0  0  0  0  0  0  0  0  0  0
   25.2890   10.8620  -17.6760 H   0  0  0  0  0  0  0  0  0  0  0  0
   24.6680    9.2910  -18.2170 H   0  0  0  0  0  0  0  0  0  0  0  0
   24.3790   10.7220  -19.1980 H   0  0  0  0  0  0  0  0  0  0  0  0
   23.4210    8.9340  -16.0320 H   0  0  0  0  0  0  0  0  0  0  0  0
   22.4420   10.2200  -15.3470 H   0  0  0  0  0  0  0  0  0  0  0  0
   24.1740   10.4490  -15.4880 H   0  0  0  0  0  0  0  0  0  0  0  0
   22.6990   12.5260  -18.3550 H   0  0  0  0  0  0  0  0  0  0  0  0
   22.0180   12.3910  -16.7460 H   0  0  0  0  0  0  0  0  0  0  0  0
   23.7450   12.6600  -16.9150 H   0  0  0  0  0  0  0  0  0  0  0  0
  1 28  1  0  0  0  0
  1 26  1  0  0  0  0
  2  1  1  0  0  0  0
  3  2  1  0  0  0  0
  3  4  1  0  0  0  0
  4 29  1  0  0  0  0
  5  4  2  0  0  0  0
  5 30  1  0  0  0  0
  6  5  1  0  0  0  0
  7  6  1  0  0  0  0
  7 14  1  0  0  0  0
  8  7  2  0  0  0  0
  9  8  1  0  0  0  0
  9 12  2  0  0  0  0
 10178  1  0  0  0  0
 10  9  1  0  0  0  0
 11 10  2  0  0  0  0
 12 13  1  0  0  0  0
 13 14  2  0  0  0  0
 13 33  1  0  0  0  0
 14 34  1  0  0  0  0
 15 25  1  0  0  0  0
 15  6  2  0  0  0  0
 16 15  1  0  0  0  0
 16 17  1  0  0  0  0
 17 35  1  0  0  0  0
 18 17  2  0  0  0  0
 18 19  1  0  0  0  0
 19 36  1  1  0  0  0
 19 20  1  0  0  0  0
 20 38  1  0  0  0  0
 20 37  1  0  0  0  0
 21 40  1  0  0  0  0
 21 19  1  0  0  0  0
 22 18  1  0  0  0  0
 23 24  1  0  0  0  0
 23 22  2  0  0  0  0
 24 16  2  0  0  0  0
 25  3  2  0  0  0  0
 27  1  1  0  0  0  0
 31  8  1  0  0  0  0
 32 12  1  0  0  0  0
 39 20  1  0  0  0  0
 41 22  1  0  0  0  0
 42 23  1  0  0  0  0
 43 24  1  0  0  0  0
 44 25  1  0  0  0  0
 45 70  1  0  0  0  0
 45 71  1  0  0  0  0
 46 45  1  0  0  0  0
 46 47  1  0  0  0  0
 47 48  1  0  0  0  0
 48 73  1  0  0  0  0
 48 49  2  0  0  0  0
 49 74  1  0  0  0  0
 50 49  1  0  0  0  0
 50 51  1  0  0  0  0
 51 52  1  0  0  0  0
 52 75  1  0  0  0  0
 52 53  2  0  0  0  0
 53 54  1  0  0  0  0
 54 55  2  0  0  0  0
 54 21  1  0  0  0  0
 56 53  1  0  0  0  0
 56 76  1  0  0  0  0
 57 56  2  0  0  0  0
 58 51  2  0  0  0  0
 58 57  1  0  0  0  0
 59 50  2  0  0  0  0
 60 59  1  0  0  0  0
 60 68  1  0  0  0  0
 61 60  2  0  0  0  0
 62 61  1  0  0  0  0
 62 66  2  0  0  0  0
 63 80  1  6  0  0  0
 63 64  1  0  0  0  0
 63 62  1  0  0  0  0
 64 82  1  0  0  0  0
 64 83  1  0  0  0  0
 65 98  1  0  0  0  0
 65 63  1  0  0  0  0
 66 67  1  0  0  0  0
 67 68  2  0  0  0  0
 67 86  1  0  0  0  0
 68 87  1  0  0  0  0
 69 47  2  0  0  0  0
 69 59  1  0  0  0  0
 72 45  1  0  0  0  0
 77 57  1  0  0  0  0
 78 58  1  0  0  0  0
 79 61  1  0  0  0  0
 81 64  1  0  0  0  0
 84 65  1  0  0  0  0
 85 66  1  0  0  0  0
 88 69  1  0  0  0  0
 89116  1  0  0  0  0
 89114  1  0  0  0  0
 90 89  1  0  0  0  0
 91 92  1  0  0  0  0
 91 90  1  0  0  0  0
 92117  1  0  0  0  0
 93118  1  0  0  0  0
 93 92  2  0  0  0  0
 94 93  1  0  0  0  0
 95102  1  0  0  0  0
 95 94  1  0  0  0  0
 96 95  2  0  0  0  0
 97100  2  0  0  0  0
 97 96  1  0  0  0  0
 98 97  1  0  0  0  0
 99 98  2  0  0  0  0
100101  1  0  0  0  0
101121  1  0  0  0  0
101102  2  0  0  0  0
102122  1  0  0  0  0
103 94  2  0  0  0  0
103113  1  0  0  0  0
104105  1  0  0  0  0
104103  1  0  0  0  0
105123  1  0  0  0  0
106107  1  0  0  0  0
106105  2  0  0  0  0
107108  1  0  0  0  0
107124  1  1  0  0  0
108125  1  0  0  0  0
108126  1  0  0  0  0
109128  1  0  0  0  0
109107  1  0  0  0  0
110106  1  0  0  0  0
111110  2  0  0  0  0
111112  1  0  0  0  0
112104  2  0  0  0  0
113 91  2  0  0  0  0
115 89  1  0  0  0  0
119 96  1  0  0  0  0
120100  1  0  0  0  0
127108  1  0  0  0  0
129110  1  0  0  0  0
130111  1  0  0  0  0
131112  1  0  0  0  0
132113  1  0  0  0  0
133134  1  0  0  0  0
133158  1  0  0  0  0
133159  1  0  0  0  0
134135  1  0  0  0  0
135157  2  0  0  0  0
135136  1  0  0  0  0
136137  2  0  0  0  0
137138  1  0  0  0  0
137162  1  0  0  0  0
138139  1  0  0  0  0
139146  2  0  0  0  0
139140  1  0  0  0  0
140141  2  0  0  0  0
141144  1  0  0  0  0
141142  1  0  0  0  0
142109  1  0  0  0  0
143142  2  0  0  0  0
144164  1  0  0  0  0
145165  1  0  0  0  0
145144  2  0  0  0  0
146145  1  0  0  0  0
147148  1  0  0  0  0
147138  2  0  0  0  0
148156  1  0  0  0  0
149150  1  0  0  0  0
149148  2  0  0  0  0
150154  2  0  0  0  0
151168  1  6  0  0  0
151152  1  0  0  0  0
151150  1  0  0  0  0
152170  1  0  0  0  0
152171  1  0  0  0  0
153151  1  0  0  0  0
153187  1  0  0  0  0
154173  1  0  0  0  0
154155  1  0  0  0  0
155174  1  0  0  0  0
156155  2  0  0  0  0
156175  1  0  0  0  0
157147  1  0  0  0  0
160133  1  0  0  0  0
161136  1  0  0  0  0
163140  1  0  0  0  0
166146  1  0  0  0  0
167149  1  0  0  0  0
169152  1  0  0  0  0
172153  1  0  0  0  0
176157  1  0  0  0  0
177178  1  0  0  0  0
177179  1  0  0  0  0
180177  1  0  0  0  0
181177  1  0  0  0  0
182189  1  0  0  0  0
182183  1  0  0  0  0
183185  1  0  0  0  0
183184  1  0  0  0  0
184194  1  0  0  0  0
184193  1  0  0  0  0
185197  1  0  0  0  0
185196  1  0  0  0  0
186187  1  0  0  0  0
186183  1  0  0  0  0
187188  2  0  0  0  0
190182  1  0  0  0  0
191182  1  0  0  0  0
192184  1  0  0  0  0
195185  1  0  0  0  0
M  END
