mom_tetramer.pdb
  -OEChem-10072410413D

197208  0     1  0  0  0  0  0999 V2000
   -2.6250    5.4700    0.8980 C   0  0  0  0  0  0  0  0  0  0  0  0
   -1.4970    4.6550    0.6030 O   0  0  0  0  0  0  0  0  0  0  0  0
   -1.7060    3.3100    0.4790 C   0  0  0  0  0  0  0  0  0  0  0  0
   -2.9190    2.6470    0.6160 C   0  0  0  0  0  0  0  0  0  0  0  0
   -2.9830    1.2530    0.4770 C   0  0  0  0  0  0  0  0  0  0  0  0
   -1.8380    0.4820    0.1920 C   0  0  0  0  0  0  0  0  0  0  0  0
   -1.9600   -0.9980    0.1120 C   0  0  0  0  0  0  0  0  0  0  0  0
   -2.8500   -1.6150   -0.7840 C   0  0  0  0  0  0  0  0  0  0  0  0
   -2.9350   -3.0160   -0.8810 C   0  0  0  0  0  0  0  0  0  0  0  0
   -3.9730   -3.5910   -1.7770 C   0  0  0  0  0  0  0  0  0  0  0  0
   -4.7560   -2.9090   -2.4170 O   0  0  0  0  0  0  0  0  0  0  0  0
   -2.1260   -3.8220   -0.0710 C   0  0  0  0  0  0  0  0  0  0  0  0
   -1.2430   -3.2300    0.8270 C   0  0  0  0  0  0  0  0  0  0  0  0
   -1.1690   -1.8370    0.9190 C   0  0  0  0  0  0  0  0  0  0  0  0
   -0.6040    1.1660    0.0140 C   0  0  0  0  0  0  0  0  0  0  0  0
    0.6370    0.4650   -0.3710 C   0  0  0  0  0  0  0  0  0  0  0  0
    1.8060    0.5570    0.4100 C   0  0  0  0  0  0  0  0  0  0  0  0
    2.9400   -0.2080    0.1020 C   0  0  0  0  0  0  0  0  0  0  0  0
    4.2210   -0.0860    0.9110 C   0  0  1  0  0  0  0  0  0  0  0  0
    4.5160   -1.3800    1.6740 C   0  0  0  0  0  0  0  0  0  0  0  0
    5.3850    0.3700    0.1180 N   0  0  0  0  0  0  0  0  0  0  0  0
    2.8500   -1.1070   -0.9680 C   0  0  0  0  0  0  0  0  0  0  0  0
    1.7550   -1.1260   -1.8190 C   0  0  0  0  0  0  0  0  0  0  0  0
    0.6540   -0.3410   -1.5210 C   0  0  0  0  0  0  0  0  0  0  0  0
   -0.5630    2.5670    0.1780 C   0  0  0  0  0  0  0  0  0  0  0  0
   -3.0720    5.2000    1.8610 H   0  0  0  0  0  0  0  0  0  0  0  0
   -3.3660    5.4280    0.0930 H   0  0  0  0  0  0  0  0  0  0  0  0
   -2.2780    6.5060    0.9740 H   0  0  0  0  0  0  0  0  0  0  0  0
   -3.8380    3.1810    0.8370 H   0  0  0  0  0  0  0  0  0  0  0  0
   -3.9470    0.7630    0.6060 H   0  0  0  0  0  0  0  0  0  0  0  0
   -3.4910   -1.0020   -1.4170 H   0  0  0  0  0  0  0  0  0  0  0  0
   -2.1860   -4.9070   -0.1140 H   0  0  0  0  0  0  0  0  0  0  0  0
   -0.6130   -3.8510    1.4580 H   0  0  0  0  0  0  0  0  0  0  0  0
   -0.4610   -1.4030    1.6230 H   0  0  0  0  0  0  0  0  0  0  0  0
    1.8120    1.2070    1.2840 H   0  0  0  0  0  0  0  0  0  0  0  0
    4.0790    0.7080    1.6580 H   0  0  0  0  0  0  0  0  0  0  0  0
    5.3920   -1.2550    2.3190 H   0  0  0  0  0  0  0  0  0  0  0  0
    3.6670   -1.6790    2.2960 H   0  0  0  0  0  0  0  0  0  0  0  0
    4.7270   -2.2110    0.9910 H   0  0  0  0  0  0  0  0  0  0  0  0
    6.0950    0.6360    0.7900 H   0  0  0  0  0  0  0  0  0  0  0  0
    3.6750   -1.7710   -1.2020 H   0  0  0  0  0  0  0  0  0  0  0  0
    1.7700   -1.7500   -2.7070 H   0  0  0  0  0  0  0  0  0  0  0  0
   -0.2160   -0.3990   -2.1700 H   0  0  0  0  0  0  0  0  0  0  0  0
    0.3800    3.0950    0.0470 H   0  0  0  0  0  0  0  0  0  0  0  0
    7.1330   -7.0650   -7.6810 C   0  0  0  0  0  0  0  0  0  0  0  0
    7.3310   -5.6820   -7.9390 O   0  0  0  0  0  0  0  0  0  0  0  0
    6.9020   -4.7840   -7.0040 C   0  0  0  0  0  0  0  0  0  0  0  0
    6.2680   -5.0730   -5.8010 C   0  0  0  0  0  0  0  0  0  0  0  0
    5.8650   -4.0290   -4.9530 C   0  0  0  0  0  0  0  0  0  0  0  0
    6.0910   -2.6770   -5.2780 C   0  0  0  0  0  0  0  0  0  0  0  0
    5.6000   -1.6080   -4.3690 C   0  0  0  0  0  0  0  0  0  0  0  0
    6.0260   -1.5360   -3.0310 C   0  0  0  0  0  0  0  0  0  0  0  0
    5.6150   -0.4830   -2.1930 C   0  0  0  0  0  0  0  0  0  0  0  0
    5.9990   -0.5230   -0.7480 C   0  0  0  0  0  0  0  0  0  0  0  0
    6.8270   -1.3250   -0.3300 O   0  0  0  0  0  0  0  0  0  0  0  0
    4.7670    0.5110   -2.6950 C   0  0  0  0  0  0  0  0  0  0  0  0
    4.3010    0.4330   -4.0040 C   0  0  0  0  0  0  0  0  0  0  0  0
    4.7170   -0.6120   -4.8310 C   0  0  0  0  0  0  0  0  0  0  0  0
    6.7780   -2.3850   -6.4890 C   0  0  0  0  0  0  0  0  0  0  0  0
    7.1230   -1.0030   -6.8790 C   0  0  0  0  0  0  0  0  0  0  0  0
    6.6920   -0.4530   -8.1020 C   0  0  0  0  0  0  0  0  0  0  0  0
    6.9160    0.8960   -8.4030 C   0  0  0  0  0  0  0  0  0  0  0  0
    6.5200    1.5080   -9.7350 C   0  0  1  0  0  0  0  0  0  0  0  0
    5.4180    2.5590   -9.5640 C   0  0  0  0  0  0  0  0  0  0  0  0
    7.6650    2.0250  -10.5200 N   0  0  0  0  0  0  0  0  0  0  0  0
    7.5370    1.6890   -7.4270 C   0  0  0  0  0  0  0  0  0  0  0  0
    8.0800    1.1400   -6.2740 C   0  0  0  0  0  0  0  0  0  0  0  0
    7.8710   -0.1980   -6.0000 C   0  0  0  0  0  0  0  0  0  0  0  0
    7.1570   -3.4500   -7.3310 C   0  0  0  0  0  0  0  0  0  0  0  0
    6.0680   -7.3130   -7.6260 H   0  0  0  0  0  0  0  0  0  0  0  0
    7.6630   -7.3840   -6.7770 H   0  0  0  0  0  0  0  0  0  0  0  0
    7.5590   -7.6170   -8.5250 H   0  0  0  0  0  0  0  0  0  0  0  0
    6.0600   -6.0920   -5.4930 H   0  0  0  0  0  0  0  0  0  0  0  0
    5.3490   -4.2840   -4.0280 H   0  0  0  0  0  0  0  0  0  0  0  0
    6.6730   -2.3150   -2.6300 H   0  0  0  0  0  0  0  0  0  0  0  0
    4.3870    1.2980   -2.0490 H   0  0  0  0  0  0  0  0  0  0  0  0
    3.5930    1.1730   -4.3720 H   0  0  0  0  0  0  0  0  0  0  0  0
    4.3550   -0.6350   -5.8570 H   0  0  0  0  0  0  0  0  0  0  0  0
    6.1440   -1.0730   -8.8060 H   0  0  0  0  0  0  0  0  0  0  0  0
    6.1070    0.7030  -10.3590 H   0  0  0  0  0  0  0  0  0  0  0  0
    5.0620    2.9060  -10.5410 H   0  0  0  0  0  0  0  0  0  0  0  0
    4.5650    2.1570   -9.0080 H   0  0  0  0  0  0  0  0  0  0  0  0
    5.7810    3.4360   -9.0170 H   0  0  0  0  0  0  0  0  0  0  0  0
    7.3190    2.1650  -11.4620 H   0  0  0  0  0  0  0  0  0  0  0  0
    7.6860    2.7510   -7.5820 H   0  0  0  0  0  0  0  0  0  0  0  0
    8.6790    1.7570   -5.6060 H   0  0  0  0  0  0  0  0  0  0  0  0
    8.2610   -0.6080   -5.0700 H   0  0  0  0  0  0  0  0  0  0  0  0
    7.6780   -3.2380   -8.2640 H   0  0  0  0  0  0  0  0  0  0  0  0
   12.3440    9.9590   -4.6660 C   0  0  0  0  0  0  0  0  0  0  0  0
   13.1480    9.0940   -5.4580 O   0  0  0  0  0  0  0  0  0  0  0  0
   12.5510    7.9890   -5.9980 C   0  0  0  0  0  0  0  0  0  0  0  0
   11.2250    7.6030   -5.8360 C   0  0  0  0  0  0  0  0  0  0  0  0
   10.7450    6.4330   -6.4450 C   0  0  0  0  0  0  0  0  0  0  0  0
   11.5790    5.6150   -7.2270 C   0  0  0  0  0  0  0  0  0  0  0  0
   11.0390    4.3570   -7.8080 C   0  0  0  0  0  0  0  0  0  0  0  0
    9.9360    4.3640   -8.6840 C   0  0  0  0  0  0  0  0  0  0  0  0
    9.4840    3.1790   -9.2950 C   0  0  0  0  0  0  0  0  0  0  0  0
    8.2520    3.2250  -10.1450 C   0  0  0  0  0  0  0  0  0  0  0  0
    7.7650    4.2920  -10.5010 O   0  0  0  0  0  0  0  0  0  0  0  0
   10.1300    1.9690   -9.0160 C   0  0  0  0  0  0  0  0  0  0  0  0
   11.1950    1.9360   -8.1200 C   0  0  0  0  0  0  0  0  0  0  0  0
   11.6450    3.1170   -7.5280 C   0  0  0  0  0  0  0  0  0  0  0  0
   12.9290    6.0250   -7.4150 C   0  0  0  0  0  0  0  0  0  0  0  0
   13.8600    5.2700   -8.2730 C   0  0  0  0  0  0  0  0  0  0  0  0
   15.0720    4.7620   -7.7680 C   0  0  0  0  0  0  0  0  0  0  0  0
   15.8900    3.9400   -8.5550 C   0  0  0  0  0  0  0  0  0  0  0  0
   17.2290    3.4410   -8.0440 C   0  0  1  0  0  0  0  0  0  0  0  0
   17.2230    1.9210   -7.8660 C   0  0  0  0  0  0  0  0  0  0  0  0
   18.3750    3.9070   -8.8560 N   0  0  0  0  0  0  0  0  0  0  0  0
   15.4270    3.5850   -9.8300 C   0  0  0  0  0  0  0  0  0  0  0  0
   14.2970    4.1650  -10.3850 C   0  0  0  0  0  0  0  0  0  0  0  0
   13.5200    5.0070   -9.6100 C   0  0  0  0  0  0  0  0  0  0  0  0
   13.3900    7.2000   -6.7850 C   0  0  0  0  0  0  0  0  0  0  0  0
   11.9750    9.4500   -3.7700 H   0  0  0  0  0  0  0  0  0  0  0  0
   11.5190   10.3830   -5.2490 H   0  0  0  0  0  0  0  0  0  0  0  0
   12.9760   10.7900   -4.3370 H   0  0  0  0  0  0  0  0  0  0  0  0
   10.5340    8.1840   -5.2370 H   0  0  0  0  0  0  0  0  0  0  0  0
    9.7040    6.1550   -6.2910 H   0  0  0  0  0  0  0  0  0  0  0  0
    9.4180    5.3000   -8.8890 H   0  0  0  0  0  0  0  0  0  0  0  0
    9.7560    1.0320   -9.4210 H   0  0  0  0  0  0  0  0  0  0  0  0
   11.6640    0.9880   -7.8700 H   0  0  0  0  0  0  0  0  0  0  0  0
   12.4990    3.0660   -6.8550 H   0  0  0  0  0  0  0  0  0  0  0  0
   15.3570    4.9850   -6.7400 H   0  0  0  0  0  0  0  0  0  0  0  0
   17.4040    3.8840   -7.0530 H   0  0  0  0  0  0  0  0  0  0  0  0
   18.1640    1.5830   -7.4180 H   0  0  0  0  0  0  0  0  0  0  0  0
   16.3980    1.6020   -7.2210 H   0  0  0  0  0  0  0  0  0  0  0  0
   17.1070    1.4010   -8.8230 H   0  0  0  0  0  0  0  0  0  0  0  0
   19.2040    3.7350   -8.3000 H   0  0  0  0  0  0  0  0  0  0  0  0
   15.9900    2.8960  -10.4500 H   0  0  0  0  0  0  0  0  0  0  0  0
   14.0330    3.9590  -11.4180 H   0  0  0  0  0  0  0  0  0  0  0  0
   12.6090    5.4170  -10.0390 H   0  0  0  0  0  0  0  0  0  0  0  0
   14.4230    7.5170   -6.9240 H   0  0  0  0  0  0  0  0  0  0  0  0
   17.0750   -0.0270  -18.9420 C   0  0  0  0  0  0  0  0  0  0  0  0
   17.6420    1.2640  -18.7500 O   0  0  0  0  0  0  0  0  0  0  0  0
   17.5820    1.8050  -17.4950 C   0  0  0  0  0  0  0  0  0  0  0  0
   17.0010    1.2190  -16.3770 C   0  0  0  0  0  0  0  0  0  0  0  0
   17.0150    1.8980  -15.1480 C   0  0  0  0  0  0  0  0  0  0  0  0
   17.5980    3.1760  -15.0080 C   0  0  0  0  0  0  0  0  0  0  0  0
   17.5370    3.8670  -13.6960 C   0  0  0  0  0  0  0  0  0  0  0  0
   18.0890    3.2970  -12.5340 C   0  0  0  0  0  0  0  0  0  0  0  0
   18.0940    3.9980  -11.3140 C   0  0  0  0  0  0  0  0  0  0  0  0
   18.6030    3.3090  -10.0880 C   0  0  0  0  0  0  0  0  0  0  0  0
   19.1960    2.2380  -10.1590 O   0  0  0  0  0  0  0  0  0  0  0  0
   17.5210    5.2750  -11.2500 C   0  0  0  0  0  0  0  0  0  0  0  0
   16.9250    5.8310  -12.3780 C   0  0  0  0  0  0  0  0  0  0  0  0
   16.9430    5.1380  -13.5870 C   0  0  0  0  0  0  0  0  0  0  0  0
   18.2000    3.7510  -16.1490 C   0  0  0  0  0  0  0  0  0  0  0  0
   18.9140    5.0730  -16.1040 C   0  0  0  0  0  0  0  0  0  0  0  0
   18.5250    6.1600  -16.9180 C   0  0  0  0  0  0  0  0  0  0  0  0
   19.1560    7.4140  -16.8050 C   0  0  0  0  0  0  0  0  0  0  0  0
   18.7630    8.5910  -17.6990 C   0  0  1  0  0  0  0  0  0  0  0  0
   17.9410    9.6410  -16.9340 C   0  0  0  0  0  0  0  0  0  0  0  0
   19.9430    9.1450  -18.3930 N   0  0  0  0  0  0  0  0  0  0  0  0
   20.1640    7.5580  -15.8420 C   0  0  0  0  0  0  0  0  0  0  0  0
   20.5740    6.4980  -15.0450 C   0  0  0  0  0  0  0  0  0  0  0  0
   19.9580    5.2580  -15.1830 C   0  0  0  0  0  0  0  0  0  0  0  0
   18.1750    3.0680  -17.3740 C   0  0  0  0  0  0  0  0  0  0  0  0
   15.9970   -0.0230  -18.7460 H   0  0  0  0  0  0  0  0  0  0  0  0
   17.5840   -0.7830  -18.3350 H   0  0  0  0  0  0  0  0  0  0  0  0
   17.2170   -0.2980  -19.9930 H   0  0  0  0  0  0  0  0  0  0  0  0
   16.5250    0.2440  -16.4340 H   0  0  0  0  0  0  0  0  0  0  0  0
   16.5490    1.4240  -14.2860 H   0  0  0  0  0  0  0  0  0  0  0  0
   18.5120    2.2940  -12.5730 H   0  0  0  0  0  0  0  0  0  0  0  0
   17.4490    5.8060  -10.3040 H   0  0  0  0  0  0  0  0  0  0  0  0
   16.4280    6.7950  -12.3100 H   0  0  0  0  0  0  0  0  0  0  0  0
   16.5000    5.6100  -14.4630 H   0  0  0  0  0  0  0  0  0  0  0  0
   17.7030    6.0230  -17.6110 H   0  0  0  0  0  0  0  0  0  0  0  0
   18.1130    8.2020  -18.4970 H   0  0  0  0  0  0  0  0  0  0  0  0
   17.6440   10.4520  -17.6080 H   0  0  0  0  0  0  0  0  0  0  0  0
   17.0430    9.2090  -16.4800 H   0  0  0  0  0  0  0  0  0  0  0  0
   18.4920   10.0870  -16.1020 H   0  0  0  0  0  0  0  0  0  0  0  0
   19.7640    9.4870  -19.3280 H   0  0  0  0  0  0  0  0  0  0  0  0
   20.6600    8.5070  -15.6930 H   0  0  0  0  0  0  0  0  0  0  0  0
   21.3640    6.6500  -14.3170 H   0  0  0  0  0  0  0  0  0  0  0  0
   20.2820    4.4520  -14.5300 H   0  0  0  0  0  0  0  0  0  0  0  0
   18.6410    3.5080  -18.2550 H   0  0  0  0  0  0  0  0  0  0  0  0
   -5.3640   -5.4280   -1.6630 C   0  0  0  0  0  0  0  0  0  0  0  0
   -4.0280   -4.9380   -1.6270 O   0  0  0  0  0  0  0  0  0  0  0  0
   -5.8410   -5.1430   -0.7200 H   0  0  0  0  0  0  0  0  0  0  0  0
   -5.3440   -6.5190   -1.7210 H   0  0  0  0  0  0  0  0  0  0  0  0
   -5.9350   -5.0390   -2.5110 H   0  0  0  0  0  0  0  0  0  0  0  0
   24.4450   10.3650  -18.1420 C   0  0  0  0  0  0  0  0  0  0  0  0
   23.1220   10.5820  -17.3960 C   0  0  0  0  0  0  0  0  0  0  0  0
   23.2960   10.0170  -15.9680 C   0  0  0  0  0  0  0  0  0  0  0  0
   22.8490   12.0950  -17.3460 C   0  0  0  0  0  0  0  0  0  0  0  0
   22.0970    9.8870  -18.1780 O   0  0  0  0  0  0  0  0  0  0  0  0
   20.8210    9.9670  -17.7150 C   0  0  0  0  0  0  0  0  0  0  0  0
   20.5070   10.6350  -16.7460 O   0  0  0  0  0  0  0  0  0  0  0  0
   25.2750   10.8720  -17.6370 H   0  0  0  0  0  0  0  0  0  0  0  0
   24.6880    9.2990  -18.2150 H   0  0  0  0  0  0  0  0  0  0  0  0
   24.3790   10.7490  -19.1650 H   0  0  0  0  0  0  0  0  0  0  0  0
   23.4240    8.9290  -15.9760 H   0  0  0  0  0  0  0  0  0  0  0  0
   22.4380   10.2310  -15.3220 H   0  0  0  0  0  0  0  0  0  0  0  0
   24.1710   10.4590  -15.4740 H   0  0  0  0  0  0  0  0  0  0  0  0
   22.6400   12.4780  -18.3500 H   0  0  0  0  0  0  0  0  0  0  0  0
   21.9830   12.3470  -16.7270 H   0  0  0  0  0  0  0  0  0  0  0  0
   23.6980   12.6390  -16.9200 H   0  0  0  0  0  0  0  0  0  0  0  0
  1 28  1  0  0  0  0
  1 26  1  0  0  0  0
  1  2  1  0  0  0  0
  2  3  1  0  0  0  0
  3  4  2  0  0  0  0
  4 29  1  0  0  0  0
  5 30  1  0  0  0  0
  4  5  1  0  0  0  0
  5  6  2  0  0  0  0
  6  7  1  0  0  0  0
  7 14  1  0  0  0  0
  7  8  2  0  0  0  0
  8  9  1  0  0  0  0
  9 12  2  0  0  0  0
 10178  1  0  0  0  0
  9 10  1  0  0  0  0
 10 11  2  0  0  0  0
 12 13  1  0  0  0  0
 13 14  2  0  0  0  0
 13 33  1  0  0  0  0
 14 34  1  0  0  0  0
 15 25  2  0  0  0  0
  6 15  1  0  0  0  0
 15 16  1  0  0  0  0
 16 17  2  0  0  0  0
 17 35  1  0  0  0  0
 17 18  1  0  0  0  0
 18 19  1  0  0  0  0
 19 36  1  0  0  0  0
 19 20  1  0  0  0  0
 20 38  1  0  0  0  0
 20 37  1  0  0  0  0
 21 40  1  0  0  0  0
 19 21  1  0  0  0  0
 18 22  2  0  0  0  0
 23 24  2  0  0  0  0
 22 23  1  0  0  0  0
 16 24  1  0  0  0  0
  3 25  1  0  0  0  0
  1 27  1  0  0  0  0
  8 31  1  0  0  0  0
 12 32  1  0  0  0  0
 20 39  1  0  0  0  0
 22 41  1  0  0  0  0
 23 42  1  0  0  0  0
 24 43  1  0  0  0  0
 25 44  1  0  0  0  0
 45 70  1  0  0  0  0
 45 71  1  0  0  0  0
 45 46  1  0  0  0  0
 46 47  1  0  0  0  0
 47 48  2  0  0  0  0
 48 73  1  0  0  0  0
 48 49  1  0  0  0  0
 49 74  1  0  0  0  0
 49 50  2  0  0  0  0
 50 51  1  0  0  0  0
 51 52  2  0  0  0  0
 52 75  1  0  0  0  0
 52 53  1  0  0  0  0
 53 54  1  0  0  0  0
 54 55  2  0  0  0  0
 21 54  1  0  0  0  0
 53 56  2  0  0  0  0
 56 76  1  0  0  0  0
 56 57  1  0  0  0  0
 51 58  1  0  0  0  0
 57 58  2  0  0  0  0
 50 59  1  0  0  0  0
 59 60  1  0  0  0  0
 60 68  1  0  0  0  0
 60 61  2  0  0  0  0
 61 62  1  0  0  0  0
 62 66  2  0  0  0  0
 63 80  1  0  0  0  0
 63 64  1  0  0  0  0
 62 63  1  0  0  0  0
 64 83  1  0  0  0  0
 64 82  1  0  0  0  0
 65 98  1  0  0  0  0
 63 65  1  0  0  0  0
 66 67  1  0  0  0  0
 67 68  2  0  0  0  0
 67 86  1  0  0  0  0
 68 87  1  0  0  0  0
 47 69  1  0  0  0  0
 59 69  2  0  0  0  0
 45 72  1  0  0  0  0
 57 77  1  0  0  0  0
 58 78  1  0  0  0  0
 61 79  1  0  0  0  0
 64 81  1  0  0  0  0
 65 84  1  0  0  0  0
 66 85  1  0  0  0  0
 69 88  1  0  0  0  0
 89116  1  0  0  0  0
 89114  1  0  0  0  0
 89 90  1  0  0  0  0
 91 92  2  0  0  0  0
 90 91  1  0  0  0  0
 92117  1  0  0  0  0
 93118  1  0  0  0  0
 92 93  1  0  0  0  0
 93 94  2  0  0  0  0
 95102  1  0  0  0  0
 94 95  1  0  0  0  0
 95 96  2  0  0  0  0
 97100  2  0  0  0  0
 96 97  1  0  0  0  0
 97 98  1  0  0  0  0
 98 99  2  0  0  0  0
100101  1  0  0  0  0
101121  1  0  0  0  0
101102  2  0  0  0  0
102122  1  0  0  0  0
 94103  1  0  0  0  0
103113  2  0  0  0  0
104105  2  0  0  0  0
103104  1  0  0  0  0
105123  1  0  0  0  0
106107  1  0  0  0  0
105106  1  0  0  0  0
107108  1  0  0  0  0
107124  1  0  0  0  0
108125  1  0  0  0  0
108126  1  0  0  0  0
109128  1  0  0  0  0
107109  1  0  0  0  0
106110  2  0  0  0  0
110111  1  0  0  0  0
111112  2  0  0  0  0
104112  1  0  0  0  0
 91113  1  0  0  0  0
 89115  1  0  0  0  0
 96119  1  0  0  0  0
100120  1  0  0  0  0
108127  1  0  0  0  0
110129  1  0  0  0  0
111130  1  0  0  0  0
112131  1  0  0  0  0
113132  1  0  0  0  0
133134  1  0  0  0  0
133158  1  0  0  0  0
133159  1  0  0  0  0
134135  1  0  0  0  0
135157  2  0  0  0  0
135136  1  0  0  0  0
136137  2  0  0  0  0
137138  1  0  0  0  0
137162  1  0  0  0  0
138139  1  0  0  0  0
139146  1  0  0  0  0
139140  2  0  0  0  0
140141  1  0  0  0  0
141144  2  0  0  0  0
141142  1  0  0  0  0
109142  1  0  0  0  0
142143  2  0  0  0  0
144164  1  0  0  0  0
145165  1  0  0  0  0
144145  1  0  0  0  0
145146  2  0  0  0  0
147148  1  0  0  0  0
138147  2  0  0  0  0
148156  2  0  0  0  0
149150  2  0  0  0  0
148149  1  0  0  0  0
150154  1  0  0  0  0
151168  1  0  0  0  0
151152  1  0  0  0  0
150151  1  0  0  0  0
152170  1  0  0  0  0
152171  1  0  0  0  0
153187  1  0  0  0  0
151153  1  0  0  0  0
154173  1  0  0  0  0
154155  2  0  0  0  0
155174  1  0  0  0  0
155156  1  0  0  0  0
156175  1  0  0  0  0
147157  1  0  0  0  0
133160  1  0  0  0  0
136161  1  0  0  0  0
140163  1  0  0  0  0
146166  1  0  0  0  0
149167  1  0  0  0  0
152169  1  0  0  0  0
153172  1  0  0  0  0
157176  1  0  0  0  0
177178  1  0  0  0  0
177179  1  0  0  0  0
177180  1  0  0  0  0
177181  1  0  0  0  0
182189  1  0  0  0  0
182183  1  0  0  0  0
183185  1  0  0  0  0
183184  1  0  0  0  0
184194  1  0  0  0  0
184193  1  0  0  0  0
185197  1  0  0  0  0
185196  1  0  0  0  0
186187  1  0  0  0  0
183186  1  0  0  0  0
187188  2  0  0  0  0
182190  1  0  0  0  0
182191  1  0  0  0  0
184192  1  0  0  0  0
185195  1  0  0  0  0
M  END
> <atom.dprop.PartialCharge>
0.107170 -0.318170 0.124450 -0.204250 -0.087570 -0.068930 -0.053330 -0.050130 -0.132020 0.651160 -0.561200 -0.071420 -0.150240 -0.083570 0.009070 -0.047320 -0.091180 -0.105870 0.151510 -0.104200 -0.561820 -0.116720 -0.134190 -0.111650 -0.143180 0.044340 0.044340 0.044340 0.140420 0.139020 0.162340 0.152880 0.137990 0.138480 0.147370 0.089130 0.044890 0.044890 0.044890 0.307250 0.127320 0.130460 0.133210 0.156850 0.113450 -0.326660 0.124360 -0.204720 -0.086160 -0.063330 -0.050910 -0.085190 -0.138880 0.689820 -0.615010 -0.075960 -0.139900 -0.097260 0.005470 -0.044110 -0.089270 -0.110700 0.151980 -0.103060 -0.568030 -0.115810 -0.132090 -0.106800 -0.145270 0.044610 0.044610 0.044610 0.139100 0.139150 0.143890 0.161230 0.142110 0.135260 0.144020 0.082690 0.044870 0.044870 0.044870 0.305500 0.125530 0.132480 0.135640 0.155520 0.112790 -0.320290 0.124050 -0.149600 -0.080850 -0.065880 -0.038620 -0.046260 -0.137450 0.680640 -0.606690 -0.104280 -0.145000 -0.095770 -0.001670 -0.039150 -0.116970 -0.099280 0.152360 -0.112920 -0.570970 -0.111110 -0.129970 -0.107770 -0.210360 0.044330 0.044330 0.044330 0.156090 0.160330 0.161900 0.128220 0.134010 0.135470 0.133150 0.086470 0.045010 0.045010 0.045010 0.310460 0.138180 0.135750 0.140730 0.141860 0.112340 -0.326140 0.125110 -0.204350 -0.083150 -0.071820 -0.042650 -0.092690 -0.143920 0.674390 -0.608280 -0.074060 -0.140600 -0.091090 0.006900 -0.045290 -0.105010 -0.117650 0.160450 -0.102820 -0.548680 -0.098710 -0.130850 -0.106330 -0.147300 0.045840 0.045840 0.045840 0.141290 0.141690 0.139460 0.156100 0.139010 0.139370 0.128680 0.087540 0.045630 0.045630 0.045630 0.325300 0.143040 0.136290 0.136770 0.156740 0.130610 -0.426800 0.052030 0.052030 0.052030 -0.114370 0.189160 -0.114370 -0.114370 -0.440630 0.749700 -0.602530 0.051230 0.051230 0.051230 0.051230 0.051230 0.051230 0.051230 0.051230 0.051230

$$$$
