mom_tetramer.pdb
 OpenBabel04012517503D

197208  0  0  1  0  0  0  0  0999 V2000
   -2.6310    5.4650    0.8830 C   0  0  0  0  0  0  0  0  0  0  0  0
   -1.5090    4.6550    0.5600 O   0  0  0  0  0  0  0  0  0  0  0  0
   -1.7160    3.3000    0.4520 C   0  0  0  0  0  0  0  0  0  0  0  0
   -2.9230    2.6500    0.6230 C   0  0  0  0  0  0  0  0  0  0  0  0
   -2.9880    1.2540    0.4970 C   0  0  0  0  0  0  0  0  0  0  0  0
   -1.8370    0.4910    0.2020 C   0  0  0  0  0  0  0  0  0  0  0  0
   -1.9590   -0.9880    0.1180 C   0  0  0  0  0  0  0  0  0  0  0  0
   -2.8550   -1.5940   -0.7760 C   0  0  0  0  0  0  0  0  0  0  0  0
   -2.9520   -2.9920   -0.8670 C   0  0  0  0  0  0  0  0  0  0  0  0
   -4.0280   -3.5600   -1.7230 C   0  0  0  0  0  0  0  0  0  0  0  0
   -4.8140   -2.8810   -2.3650 O   0  0  0  0  0  0  0  0  0  0  0  0
   -2.1220   -3.8010   -0.0790 C   0  0  0  0  0  0  0  0  0  0  0  0
   -1.2270   -3.2170    0.8110 C   0  0  0  0  0  0  0  0  0  0  0  0
   -1.1630   -1.8300    0.9210 C   0  0  0  0  0  0  0  0  0  0  0  0
   -0.6050    1.1690   -0.0070 C   0  0  0  0  0  0  0  0  0  0  0  0
    0.6350    0.4600   -0.3880 C   0  0  0  0  0  0  0  0  0  0  0  0
    1.8020    0.5340    0.3960 C   0  0  0  0  0  0  0  0  0  0  0  0
    2.9280   -0.2570    0.1030 C   0  0  0  0  0  0  0  0  0  0  0  0
    4.2090   -0.1300    0.9100 C   0  0  1  0  0  0  0  0  0  0  0  0
    4.5090   -1.4120    1.6930 C   0  0  0  0  0  0  0  0  0  0  0  0
    5.3720    0.3370    0.1230 N   0  0  0  0  0  0  0  0  0  0  0  0
    2.8270   -1.1770   -0.9480 C   0  0  0  0  0  0  0  0  0  0  0  0
    1.7330   -1.1760   -1.8050 C   0  0  0  0  0  0  0  0  0  0  0  0
    0.6520   -0.3480   -1.5360 C   0  0  0  0  0  0  0  0  0  0  0  0
   -0.5700    2.5720    0.1370 C   0  0  0  0  0  0  0  0  0  0  0  0
   -3.0440    5.2000    1.8620 H   0  0  0  0  0  0  0  0  0  0  0  0
   -3.3960    5.4080    0.1020 H   0  0  0  0  0  0  0  0  0  0  0  0
   -2.2870    6.5020    0.9370 H   0  0  0  0  0  0  0  0  0  0  0  0
   -3.8430    3.1820    0.8600 H   0  0  0  0  0  0  0  0  0  0  0  0
   -3.9440    0.7570    0.6440 H   0  0  0  0  0  0  0  0  0  0  0  0
   -3.4910   -0.9730   -1.4070 H   0  0  0  0  0  0  0  0  0  0  0  0
   -2.1850   -4.8860   -0.1300 H   0  0  0  0  0  0  0  0  0  0  0  0
   -0.5830   -3.8460    1.4230 H   0  0  0  0  0  0  0  0  0  0  0  0
   -0.4610   -1.3940    1.6320 H   0  0  0  0  0  0  0  0  0  0  0  0
    1.8160    1.1910    1.2640 H   0  0  0  0  0  0  0  0  0  0  0  0
    4.0610    0.6680    1.6510 H   0  0  0  0  0  0  0  0  0  0  0  0
    5.3810   -1.2730    2.3420 H   0  0  0  0  0  0  0  0  0  0  0  0
    3.6580   -1.6970    2.3210 H   0  0  0  0  0  0  0  0  0  0  0  0
    4.7260   -2.2550    1.0290 H   0  0  0  0  0  0  0  0  0  0  0  0
    6.0800    0.6040    0.7970 H   0  0  0  0  0  0  0  0  0  0  0  0
    3.6360   -1.8700   -1.1550 H   0  0  0  0  0  0  0  0  0  0  0  0
    1.7320   -1.8200   -2.6800 H   0  0  0  0  0  0  0  0  0  0  0  0
   -0.2070   -0.3790   -2.2020 H   0  0  0  0  0  0  0  0  0  0  0  0
    0.3600    3.1050   -0.0180 H   0  0  0  0  0  0  0  0  0  0  0  0
    7.1350   -7.0530   -7.6900 C   0  0  0  0  0  0  0  0  0  0  0  0
    7.3520   -5.6740   -7.9560 O   0  0  0  0  0  0  0  0  0  0  0  0
    6.9160   -4.7770   -7.0210 C   0  0  0  0  0  0  0  0  0  0  0  0
    6.2730   -5.0730   -5.8240 C   0  0  0  0  0  0  0  0  0  0  0  0
    5.8660   -4.0380   -4.9700 C   0  0  0  0  0  0  0  0  0  0  0  0
    6.0950   -2.6850   -5.2880 C   0  0  0  0  0  0  0  0  0  0  0  0
    5.5980   -1.6250   -4.3720 C   0  0  0  0  0  0  0  0  0  0  0  0
    6.0190   -1.5530   -3.0320 C   0  0  0  0  0  0  0  0  0  0  0  0
    5.6060   -0.4990   -2.1950 C   0  0  0  0  0  0  0  0  0  0  0  0
    6.0060   -0.5260   -0.7560 C   0  0  0  0  0  0  0  0  0  0  0  0
    6.8960   -1.2710   -0.3580 O   0  0  0  0  0  0  0  0  0  0  0  0
    4.7770    0.5060   -2.7050 C   0  0  0  0  0  0  0  0  0  0  0  0
    4.3140    0.4260   -4.0160 C   0  0  0  0  0  0  0  0  0  0  0  0
    4.7160   -0.6310   -4.8350 C   0  0  0  0  0  0  0  0  0  0  0  0
    6.7870   -2.3850   -6.4970 C   0  0  0  0  0  0  0  0  0  0  0  0
    7.1420   -1.0020   -6.8750 C   0  0  0  0  0  0  0  0  0  0  0  0
    6.7150   -0.4340   -8.0920 C   0  0  0  0  0  0  0  0  0  0  0  0
    6.9330    0.9250   -8.3750 C   0  0  0  0  0  0  0  0  0  0  0  0
    6.5290    1.5250   -9.7110 C   0  0  1  0  0  0  0  0  0  0  0  0
    5.4140    2.5610   -9.5460 C   0  0  0  0  0  0  0  0  0  0  0  0
    7.6650    2.0360  -10.5090 N   0  0  0  0  0  0  0  0  0  0  0  0
    7.5180    1.7170   -7.3780 C   0  0  0  0  0  0  0  0  0  0  0  0
    8.0520    1.1520   -6.2270 C   0  0  0  0  0  0  0  0  0  0  0  0
    7.8800   -0.2030   -5.9890 C   0  0  0  0  0  0  0  0  0  0  0  0
    7.1710   -3.4430   -7.3440 C   0  0  0  0  0  0  0  0  0  0  0  0
    6.0670   -7.2800   -7.6170 H   0  0  0  0  0  0  0  0  0  0  0  0
    7.6720   -7.3700   -6.7890 H   0  0  0  0  0  0  0  0  0  0  0  0
    7.5390   -7.6200   -8.5350 H   0  0  0  0  0  0  0  0  0  0  0  0
    6.0650   -6.0950   -5.5250 H   0  0  0  0  0  0  0  0  0  0  0  0
    5.3520   -4.2980   -4.0460 H   0  0  0  0  0  0  0  0  0  0  0  0
    6.6790   -2.3220   -2.6310 H   0  0  0  0  0  0  0  0  0  0  0  0
    4.4310    1.3180   -2.0710 H   0  0  0  0  0  0  0  0  0  0  0  0
    3.6290    1.1790   -4.3960 H   0  0  0  0  0  0  0  0  0  0  0  0
    4.3540   -0.6600   -5.8610 H   0  0  0  0  0  0  0  0  0  0  0  0
    6.1760   -1.0550   -8.8070 H   0  0  0  0  0  0  0  0  0  0  0  0
    6.1220    0.7150  -10.3330 H   0  0  0  0  0  0  0  0  0  0  0  0
    5.0710    2.9190  -10.5230 H   0  0  0  0  0  0  0  0  0  0  0  0
    4.5550    2.1320   -9.0190 H   0  0  0  0  0  0  0  0  0  0  0  0
    5.7480    3.4340   -8.9760 H   0  0  0  0  0  0  0  0  0  0  0  0
    7.3100    2.1800  -11.4460 H   0  0  0  0  0  0  0  0  0  0  0  0
    7.6240    2.7880   -7.5140 H   0  0  0  0  0  0  0  0  0  0  0  0
    8.5980    1.7700   -5.5210 H   0  0  0  0  0  0  0  0  0  0  0  0
    8.2770   -0.6250   -5.0680 H   0  0  0  0  0  0  0  0  0  0  0  0
    7.7000   -3.2260   -8.2710 H   0  0  0  0  0  0  0  0  0  0  0  0
   12.3200    9.9610   -4.6750 C   0  0  0  0  0  0  0  0  0  0  0  0
   13.1290    9.1040   -5.4690 O   0  0  0  0  0  0  0  0  0  0  0  0
   12.5330    7.9940   -6.0010 C   0  0  0  0  0  0  0  0  0  0  0  0
   11.2080    7.6060   -5.8330 C   0  0  0  0  0  0  0  0  0  0  0  0
   10.7380    6.4290   -6.4350 C   0  0  0  0  0  0  0  0  0  0  0  0
   11.5770    5.6140   -7.2200 C   0  0  0  0  0  0  0  0  0  0  0  0
   11.0390    4.3580   -7.8020 C   0  0  0  0  0  0  0  0  0  0  0  0
    9.9490    4.3650   -8.6940 C   0  0  0  0  0  0  0  0  0  0  0  0
    9.4970    3.1770   -9.3000 C   0  0  0  0  0  0  0  0  0  0  0  0
    8.2760    3.2290  -10.1570 C   0  0  0  0  0  0  0  0  0  0  0  0
    7.8330    4.2960  -10.5700 O   0  0  0  0  0  0  0  0  0  0  0  0
   10.1510    1.9700   -9.0330 C   0  0  0  0  0  0  0  0  0  0  0  0
   11.2050    1.9370   -8.1230 C   0  0  0  0  0  0  0  0  0  0  0  0
   11.6360    3.1160   -7.5120 C   0  0  0  0  0  0  0  0  0  0  0  0
   12.9270    6.0280   -7.4140 C   0  0  0  0  0  0  0  0  0  0  0  0
   13.8620    5.2720   -8.2730 C   0  0  0  0  0  0  0  0  0  0  0  0
   15.0790    4.7660   -7.7760 C   0  0  0  0  0  0  0  0  0  0  0  0
   15.8880    3.9230   -8.5580 C   0  0  0  0  0  0  0  0  0  0  0  0
   17.2310    3.4310   -8.0480 C   0  0  1  0  0  0  0  0  0  0  0  0
   17.2320    1.9140   -7.8340 C   0  0  0  0  0  0  0  0  0  0  0  0
   18.3850    3.8900   -8.8540 N   0  0  0  0  0  0  0  0  0  0  0  0
   15.4110    3.5390   -9.8170 C   0  0  0  0  0  0  0  0  0  0  0  0
   14.2800    4.1230  -10.3700 C   0  0  0  0  0  0  0  0  0  0  0  0
   13.5200    4.9970   -9.6070 C   0  0  0  0  0  0  0  0  0  0  0  0
   13.3760    7.2080   -6.7890 C   0  0  0  0  0  0  0  0  0  0  0  0
   11.9480    9.4420   -3.7860 H   0  0  0  0  0  0  0  0  0  0  0  0
   11.4970   10.3830   -5.2620 H   0  0  0  0  0  0  0  0  0  0  0  0
   12.9470   10.7910   -4.3370 H   0  0  0  0  0  0  0  0  0  0  0  0
   10.5120    8.1900   -5.2410 H   0  0  0  0  0  0  0  0  0  0  0  0
    9.6990    6.1430   -6.2760 H   0  0  0  0  0  0  0  0  0  0  0  0
    9.4450    5.3030   -8.9220 H   0  0  0  0  0  0  0  0  0  0  0  0
    9.8050    1.0380   -9.4740 H   0  0  0  0  0  0  0  0  0  0  0  0
   11.6810    0.9920   -7.8780 H   0  0  0  0  0  0  0  0  0  0  0  0
   12.4740    3.0650   -6.8190 H   0  0  0  0  0  0  0  0  0  0  0  0
   15.3770    5.0060   -6.7560 H   0  0  0  0  0  0  0  0  0  0  0  0
   17.4040    3.8900   -7.0650 H   0  0  0  0  0  0  0  0  0  0  0  0
   18.1700    1.5910   -7.3690 H   0  0  0  0  0  0  0  0  0  0  0  0
   16.4060    1.6100   -7.1830 H   0  0  0  0  0  0  0  0  0  0  0  0
   17.1280    1.3680   -8.7770 H   0  0  0  0  0  0  0  0  0  0  0  0
   19.2090    3.7000   -8.2970 H   0  0  0  0  0  0  0  0  0  0  0  0
   15.9580    2.8190  -10.4190 H   0  0  0  0  0  0  0  0  0  0  0  0
   13.9940    3.8950  -11.3920 H   0  0  0  0  0  0  0  0  0  0  0  0
   12.6170    5.4200  -10.0410 H   0  0  0  0  0  0  0  0  0  0  0  0
   14.4040    7.5380   -6.9350 H   0  0  0  0  0  0  0  0  0  0  0  0
   17.0610   -0.0090  -18.9490 C   0  0  0  0  0  0  0  0  0  0  0  0
   17.6210    1.2830  -18.7540 O   0  0  0  0  0  0  0  0  0  0  0  0
   17.5670    1.8150  -17.4960 C   0  0  0  0  0  0  0  0  0  0  0  0
   17.0010    1.2270  -16.3710 C   0  0  0  0  0  0  0  0  0  0  0  0
   17.0100    1.9060  -15.1430 C   0  0  0  0  0  0  0  0  0  0  0  0
   17.5880    3.1840  -15.0090 C   0  0  0  0  0  0  0  0  0  0  0  0
   17.5320    3.8760  -13.6930 C   0  0  0  0  0  0  0  0  0  0  0  0
   18.0990    3.3110  -12.5350 C   0  0  0  0  0  0  0  0  0  0  0  0
   18.1070    4.0100  -11.3120 C   0  0  0  0  0  0  0  0  0  0  0  0
   18.6380    3.3260  -10.0940 C   0  0  0  0  0  0  0  0  0  0  0  0
   19.3140    2.3060  -10.1820 O   0  0  0  0  0  0  0  0  0  0  0  0
   17.5600    5.2960  -11.2480 C   0  0  0  0  0  0  0  0  0  0  0  0
   16.9560    5.8530  -12.3730 C   0  0  0  0  0  0  0  0  0  0  0  0
   16.9380    5.1450  -13.5770 C   0  0  0  0  0  0  0  0  0  0  0  0
   18.1960    3.7760  -16.1520 C   0  0  0  0  0  0  0  0  0  0  0  0
   18.8990    5.0750  -16.0990 C   0  0  0  0  0  0  0  0  0  0  0  0
   18.5430    6.1660  -16.9170 C   0  0  0  0  0  0  0  0  0  0  0  0
   19.1710    7.4200  -16.8000 C   0  0  0  0  0  0  0  0  0  0  0  0
   18.7810    8.5990  -17.6940 C   0  0  1  0  0  0  0  0  0  0  0  0
   17.9110    9.6160  -16.9430 C   0  0  0  0  0  0  0  0  0  0  0  0
   19.9480    9.1950  -18.3490 N   0  0  0  0  0  0  0  0  0  0  0  0
   20.1640    7.5580  -15.8150 C   0  0  0  0  0  0  0  0  0  0  0  0
   20.5680    6.4910  -15.0270 C   0  0  0  0  0  0  0  0  0  0  0  0
   19.9570    5.2540  -15.1780 C   0  0  0  0  0  0  0  0  0  0  0  0
   18.1590    3.0760  -17.3780 C   0  0  0  0  0  0  0  0  0  0  0  0
   15.9880   -0.0160  -18.7340 H   0  0  0  0  0  0  0  0  0  0  0  0
   17.5890   -0.7640  -18.3580 H   0  0  0  0  0  0  0  0  0  0  0  0
   17.1880   -0.2670  -20.0060 H   0  0  0  0  0  0  0  0  0  0  0  0
   16.5400    0.2450  -16.4100 H   0  0  0  0  0  0  0  0  0  0  0  0
   16.5450    1.4290  -14.2820 H   0  0  0  0  0  0  0  0  0  0  0  0
   18.5430    2.3170  -12.5800 H   0  0  0  0  0  0  0  0  0  0  0  0
   17.5390    5.8480  -10.3110 H   0  0  0  0  0  0  0  0  0  0  0  0
   16.4890    6.8320  -12.3110 H   0  0  0  0  0  0  0  0  0  0  0  0
   16.4740    5.6100  -14.4450 H   0  0  0  0  0  0  0  0  0  0  0  0
   17.7390    6.0330  -17.6470 H   0  0  0  0  0  0  0  0  0  0  0  0
   18.1750    8.2050  -18.5200 H   0  0  0  0  0  0  0  0  0  0  0  0
   17.6240   10.4400  -17.6050 H   0  0  0  0  0  0  0  0  0  0  0  0
   17.0040    9.1480  -16.5510 H   0  0  0  0  0  0  0  0  0  0  0  0
   18.4200   10.0510  -16.0770 H   0  0  0  0  0  0  0  0  0  0  0  0
   19.9700    9.2650  -19.3540 H   0  0  0  0  0  0  0  0  0  0  0  0
   20.6460    8.5140  -15.6360 H   0  0  0  0  0  0  0  0  0  0  0  0
   21.3530    6.6260  -14.2890 H   0  0  0  0  0  0  0  0  0  0  0  0
   20.2770    4.4340  -14.5420 H   0  0  0  0  0  0  0  0  0  0  0  0
   18.6240    3.5120  -18.2590 H   0  0  0  0  0  0  0  0  0  0  0  0
   -5.4190   -5.4300   -1.6650 C   0  0  0  0  0  0  0  0  0  0  0  0
   -4.1020   -4.8990   -1.5290 O   0  0  0  0  0  0  0  0  0  0  0  0
   -5.9640   -5.2050   -0.7430 H   0  0  0  0  0  0  0  0  0  0  0  0
   -5.3470   -6.5170   -1.7640 H   0  0  0  0  0  0  0  0  0  0  0  0
   -5.9550   -5.0300   -2.5300 H   0  0  0  0  0  0  0  0  0  0  0  0
   24.4480   10.3720  -18.1660 C   0  0  0  0  0  0  0  0  0  0  0  0
   23.1280   10.6250  -17.4230 C   0  0  0  0  0  0  0  0  0  0  0  0
   23.2780   10.0270  -16.0080 C   0  0  0  0  0  0  0  0  0  0  0  0
   22.8900   12.1400  -17.3600 C   0  0  0  0  0  0  0  0  0  0  0  0
   22.0700    9.9810  -18.2080 O   0  0  0  0  0  0  0  0  0  0  0  0
   20.8250   10.0150  -17.6950 C   0  0  0  0  0  0  0  0  0  0  0  0
   20.5230   10.6410  -16.6830 O   0  0  0  0  0  0  0  0  0  0  0  0
   25.2880   10.8670  -17.6620 H   0  0  0  0  0  0  0  0  0  0  0  0
   24.6710    9.3000  -18.2200 H   0  0  0  0  0  0  0  0  0  0  0  0
   24.3970   10.7400  -19.1950 H   0  0  0  0  0  0  0  0  0  0  0  0
   23.4030    8.9390  -16.0450 H   0  0  0  0  0  0  0  0  0  0  0  0
   22.4100   10.2200  -15.3710 H   0  0  0  0  0  0  0  0  0  0  0  0
   24.1420   10.4570  -15.4880 H   0  0  0  0  0  0  0  0  0  0  0  0
   22.6770   12.5360  -18.3590 H   0  0  0  0  0  0  0  0  0  0  0  0
   22.0320   12.3990  -16.7330 H   0  0  0  0  0  0  0  0  0  0  0  0
   23.7540   12.6640  -16.9410 H   0  0  0  0  0  0  0  0  0  0  0  0
  1 28  1  0  0  0  0
  1 26  1  0  0  0  0
  2  1  1  0  0  0  0
  3  2  1  0  0  0  0
  3  4  1  0  0  0  0
  4 29  1  0  0  0  0
  5  4  2  0  0  0  0
  5 30  1  0  0  0  0
  6  5  1  0  0  0  0
  7  6  1  0  0  0  0
  7 14  1  0  0  0  0
  8  7  2  0  0  0  0
  9  8  1  0  0  0  0
  9 12  2  0  0  0  0
 10178  1  0  0  0  0
 10  9  1  0  0  0  0
 11 10  2  0  0  0  0
 12 13  1  0  0  0  0
 13 14  2  0  0  0  0
 13 33  1  0  0  0  0
 14 34  1  0  0  0  0
 15 25  1  0  0  0  0
 15  6  2  0  0  0  0
 16 15  1  0  0  0  0
 16 17  1  0  0  0  0
 17 35  1  0  0  0  0
 18 17  2  0  0  0  0
 18 19  1  0  0  0  0
 19 36  1  1  0  0  0
 19 20  1  0  0  0  0
 20 38  1  0  0  0  0
 20 37  1  0  0  0  0
 21 40  1  0  0  0  0
 21 19  1  0  0  0  0
 22 18  1  0  0  0  0
 23 24  1  0  0  0  0
 23 22  2  0  0  0  0
 24 16  2  0  0  0  0
 25  3  2  0  0  0  0
 27  1  1  0  0  0  0
 31  8  1  0  0  0  0
 32 12  1  0  0  0  0
 39 20  1  0  0  0  0
 41 22  1  0  0  0  0
 42 23  1  0  0  0  0
 43 24  1  0  0  0  0
 44 25  1  0  0  0  0
 45 70  1  0  0  0  0
 45 71  1  0  0  0  0
 46 45  1  0  0  0  0
 46 47  1  0  0  0  0
 47 48  1  0  0  0  0
 48 73  1  0  0  0  0
 48 49  2  0  0  0  0
 49 74  1  0  0  0  0
 50 49  1  0  0  0  0
 50 51  1  0  0  0  0
 51 52  1  0  0  0  0
 52 75  1  0  0  0  0
 52 53  2  0  0  0  0
 53 54  1  0  0  0  0
 54 55  2  0  0  0  0
 54 21  1  0  0  0  0
 56 53  1  0  0  0  0
 56 76  1  0  0  0  0
 57 56  2  0  0  0  0
 58 51  2  0  0  0  0
 58 57  1  0  0  0  0
 59 50  2  0  0  0  0
 60 59  1  0  0  0  0
 60 68  1  0  0  0  0
 61 60  2  0  0  0  0
 62 61  1  0  0  0  0
 62 66  2  0  0  0  0
 63 80  1  6  0  0  0
 63 64  1  0  0  0  0
 63 62  1  0  0  0  0
 64 82  1  0  0  0  0
 64 83  1  0  0  0  0
 65 98  1  0  0  0  0
 65 63  1  0  0  0  0
 66 67  1  0  0  0  0
 67 68  2  0  0  0  0
 67 86  1  0  0  0  0
 68 87  1  0  0  0  0
 69 47  2  0  0  0  0
 69 59  1  0  0  0  0
 72 45  1  0  0  0  0
 77 57  1  0  0  0  0
 78 58  1  0  0  0  0
 79 61  1  0  0  0  0
 81 64  1  0  0  0  0
 84 65  1  0  0  0  0
 85 66  1  0  0  0  0
 88 69  1  0  0  0  0
 89116  1  0  0  0  0
 89114  1  0  0  0  0
 90 89  1  0  0  0  0
 91 92  1  0  0  0  0
 91 90  1  0  0  0  0
 92117  1  0  0  0  0
 93118  1  0  0  0  0
 93 92  2  0  0  0  0
 94 93  1  0  0  0  0
 95102  1  0  0  0  0
 95 94  1  0  0  0  0
 96 95  2  0  0  0  0
 97100  2  0  0  0  0
 97 96  1  0  0  0  0
 98 97  1  0  0  0  0
 99 98  2  0  0  0  0
100101  1  0  0  0  0
101121  1  0  0  0  0
101102  2  0  0  0  0
102122  1  0  0  0  0
103 94  2  0  0  0  0
103113  1  0  0  0  0
104105  1  0  0  0  0
104103  1  0  0  0  0
105123  1  0  0  0  0
106107  1  0  0  0  0
106105  2  0  0  0  0
107108  1  0  0  0  0
107124  1  1  0  0  0
108125  1  0  0  0  0
108126  1  0  0  0  0
109128  1  0  0  0  0
109107  1  0  0  0  0
110106  1  0  0  0  0
111110  2  0  0  0  0
111112  1  0  0  0  0
112104  2  0  0  0  0
113 91  2  0  0  0  0
115 89  1  0  0  0  0
119 96  1  0  0  0  0
120100  1  0  0  0  0
127108  1  0  0  0  0
129110  1  0  0  0  0
130111  1  0  0  0  0
131112  1  0  0  0  0
132113  1  0  0  0  0
133134  1  0  0  0  0
133158  1  0  0  0  0
133159  1  0  0  0  0
134135  1  0  0  0  0
135157  2  0  0  0  0
135136  1  0  0  0  0
136137  2  0  0  0  0
137138  1  0  0  0  0
137162  1  0  0  0  0
138139  1  0  0  0  0
139146  2  0  0  0  0
139140  1  0  0  0  0
140141  2  0  0  0  0
141144  1  0  0  0  0
141142  1  0  0  0  0
142109  1  0  0  0  0
143142  2  0  0  0  0
144164  1  0  0  0  0
145165  1  0  0  0  0
145144  2  0  0  0  0
146145  1  0  0  0  0
147148  1  0  0  0  0
147138  2  0  0  0  0
148156  1  0  0  0  0
149150  1  0  0  0  0
149148  2  0  0  0  0
150154  2  0  0  0  0
151168  1  6  0  0  0
151152  1  0  0  0  0
151150  1  0  0  0  0
152170  1  0  0  0  0
152171  1  0  0  0  0
153187  1  0  0  0  0
153151  1  0  0  0  0
154173  1  0  0  0  0
154155  1  0  0  0  0
155174  1  0  0  0  0
156155  2  0  0  0  0
156175  1  0  0  0  0
157147  1  0  0  0  0
160133  1  0  0  0  0
161136  1  0  0  0  0
163140  1  0  0  0  0
166146  1  0  0  0  0
167149  1  0  0  0  0
169152  1  0  0  0  0
172153  1  0  0  0  0
176157  1  0  0  0  0
177178  1  0  0  0  0
177179  1  0  0  0  0
180177  1  0  0  0  0
181177  1  0  0  0  0
182189  1  0  0  0  0
182183  1  0  0  0  0
183185  1  0  0  0  0
183184  1  0  0  0  0
184194  1  0  0  0  0
184193  1  0  0  0  0
185197  1  0  0  0  0
185196  1  0  0  0  0
186187  1  0  0  0  0
186183  1  0  0  0  0
187188  2  0  0  0  0
190182  1  0  0  0  0
191182  1  0  0  0  0
192184  1  0  0  0  0
195185  1  0  0  0  0
M  END
