pmp_tetramer.pdb
  -OEChem-09092515233D

197208  0     1  0  0  0  0  0999 V2000
    2.0930    4.9910   -0.1870 C   0  0  0  0  0  0  0  0  0  0  0  0
    0.8760    4.2640   -0.2390 O   0  0  0  0  0  0  0  0  0  0  0  0
    0.9630    2.9010   -0.1530 C   0  0  0  0  0  0  0  0  0  0  0  0
    2.1310    2.1620    0.0210 C   0  0  0  0  0  0  0  0  0  0  0  0
    2.0960    0.7570    0.0940 C   0  0  0  0  0  0  0  0  0  0  0  0
    3.3330   -0.0250    0.2660 C   0  0  0  0  0  0  0  0  0  0  0  0
    4.4880    0.2680   -0.4810 C   0  0  0  0  0  0  0  0  0  0  0  0
    5.6590   -0.4800   -0.3300 C   0  0  0  0  0  0  0  0  0  0  0  0
    5.6930   -1.5500    0.5670 C   0  0  0  0  0  0  0  0  0  0  0  0
    6.9000   -2.4150    0.5840 C   0  0  0  0  0  0  0  0  0  0  0  0
    7.8930   -2.2180   -0.0970 O   0  0  0  0  0  0  0  0  0  0  0  0
    4.5550   -1.8520    1.3240 C   0  0  0  0  0  0  0  0  0  0  0  0
    3.3910   -1.0970    1.1720 C   0  0  0  0  0  0  0  0  0  0  0  0
    0.8450    0.1220   -0.0010 C   0  0  0  0  0  0  0  0  0  0  0  0
   -0.3470    0.8420   -0.1700 C   0  0  0  0  0  0  0  0  0  0  0  0
   -1.6470    0.1610   -0.2670 C   0  0  0  0  0  0  0  0  0  0  0  0
   -1.7990   -1.0060   -1.0320 C   0  0  0  0  0  0  0  0  0  0  0  0
   -3.0290   -1.6580   -1.1130 C   0  0  0  0  0  0  0  0  0  0  0  0
   -4.1450   -1.1540   -0.4340 C   0  0  0  0  0  0  0  0  0  0  0  0
   -5.4490   -1.9150   -0.4760 C   0  0  2  0  0  0  0  0  0  0  0  0
   -6.4850   -1.1550   -1.3030 C   0  0  0  0  0  0  0  0  0  0  0  0
   -5.9800   -2.2580    0.8410 N   0  0  0  0  0  0  0  0  0  0  0  0
   -4.0090    0.0150    0.3230 C   0  0  0  0  0  0  0  0  0  0  0  0
   -2.7740    0.6560    0.4120 C   0  0  0  0  0  0  0  0  0  0  0  0
   -0.2590    2.2390   -0.2480 C   0  0  0  0  0  0  0  0  0  0  0  0
    2.7480    4.7230   -1.0220 H   0  0  0  0  0  0  0  0  0  0  0  0
    1.8490    6.0540   -0.2820 H   0  0  0  0  0  0  0  0  0  0  0  0
    2.5980    4.8500    0.7750 H   0  0  0  0  0  0  0  0  0  0  0  0
    3.0890    2.6600    0.1200 H   0  0  0  0  0  0  0  0  0  0  0  0
    4.4770    1.0710   -1.2160 H   0  0  0  0  0  0  0  0  0  0  0  0
    6.5280   -0.2450   -0.9420 H   0  0  0  0  0  0  0  0  0  0  0  0
    4.5460   -2.6890    2.0180 H   0  0  0  0  0  0  0  0  0  0  0  0
    2.5200   -1.3640    1.7690 H   0  0  0  0  0  0  0  0  0  0  0  0
    0.7970   -0.9660    0.0640 H   0  0  0  0  0  0  0  0  0  0  0  0
   -0.9540   -1.4280   -1.5690 H   0  0  0  0  0  0  0  0  0  0  0  0
   -3.0990   -2.5790   -1.6860 H   0  0  0  0  0  0  0  0  0  0  0  0
   -5.2780   -2.8820   -0.9680 H   0  0  0  0  0  0  0  0  0  0  0  0
   -6.7330   -0.1860   -0.8560 H   0  0  0  0  0  0  0  0  0  0  0  0
   -6.1150   -0.9730   -2.3190 H   0  0  0  0  0  0  0  0  0  0  0  0
   -7.4150   -1.7280   -1.3830 H   0  0  0  0  0  0  0  0  0  0  0  0
   -6.9510   -2.5160    0.8120 H   0  0  0  0  0  0  0  0  0  0  0  0
   -4.8510    0.3990    0.8940 H   0  0  0  0  0  0  0  0  0  0  0  0
   -2.6930    1.5330    1.0490 H   0  0  0  0  0  0  0  0  0  0  0  0
   -1.1600    2.8320   -0.3960 H   0  0  0  0  0  0  0  0  0  0  0  0
   -4.3730  -11.5890    3.5170 C   0  0  0  0  0  0  0  0  0  0  0  0
   -5.6970  -11.6780    4.0220 O   0  0  0  0  0  0  0  0  0  0  0  0
   -6.4410  -10.5300    4.0140 C   0  0  0  0  0  0  0  0  0  0  0  0
   -6.0270   -9.2820    3.5520 C   0  0  0  0  0  0  0  0  0  0  0  0
   -6.8900   -8.1740    3.6000 C   0  0  0  0  0  0  0  0  0  0  0  0
   -6.4720   -6.8430    3.1300 C   0  0  0  0  0  0  0  0  0  0  0  0
   -5.2170   -6.3170    3.4590 C   0  0  0  0  0  0  0  0  0  0  0  0
   -4.8380   -5.0490    3.0180 C   0  0  0  0  0  0  0  0  0  0  0  0
   -5.7070   -4.2700    2.2400 C   0  0  0  0  0  0  0  0  0  0  0  0
   -5.1730   -2.9870    1.7050 C   0  0  0  0  0  0  0  0  0  0  0  0
   -4.0250   -2.6680    1.9930 O   0  0  0  0  0  0  0  0  0  0  0  0
   -6.9650   -4.7800    1.9130 C   0  0  0  0  0  0  0  0  0  0  0  0
   -7.3360   -6.0530    2.3520 C   0  0  0  0  0  0  0  0  0  0  0  0
   -8.1810   -8.3600    4.1180 C   0  0  0  0  0  0  0  0  0  0  0  0
   -8.6220   -9.6030    4.5880 C   0  0  0  0  0  0  0  0  0  0  0  0
   -9.9810   -9.7660    5.1260 C   0  0  0  0  0  0  0  0  0  0  0  0
  -10.5440   -8.7990    5.9740 C   0  0  0  0  0  0  0  0  0  0  0  0
  -11.8360   -8.9470    6.4740 C   0  0  0  0  0  0  0  0  0  0  0  0
  -12.5960  -10.0740    6.1420 C   0  0  0  0  0  0  0  0  0  0  0  0
  -14.0150  -10.1890    6.6430 C   0  0  2  0  0  0  0  0  0  0  0  0
  -14.1130  -11.2890    7.7000 C   0  0  0  0  0  0  0  0  0  0  0  0
  -15.0030  -10.3850    5.5860 N   0  0  0  0  0  0  0  0  0  0  0  0
  -12.0430  -11.0470    5.3000 C   0  0  0  0  0  0  0  0  0  0  0  0
  -10.7570  -10.8870    4.7920 C   0  0  0  0  0  0  0  0  0  0  0  0
   -7.7300  -10.6790    4.5300 C   0  0  0  0  0  0  0  0  0  0  0  0
   -3.7700  -10.8980    4.1160 H   0  0  0  0  0  0  0  0  0  0  0  0
   -3.9200  -12.5820    3.5950 H   0  0  0  0  0  0  0  0  0  0  0  0
   -4.3720  -11.3030    2.4600 H   0  0  0  0  0  0  0  0  0  0  0  0
   -5.0340   -9.1480    3.1350 H   0  0  0  0  0  0  0  0  0  0  0  0
   -4.5180   -6.8860    4.0680 H   0  0  0  0  0  0  0  0  0  0  0  0
   -3.8450   -4.6790    3.2690 H   0  0  0  0  0  0  0  0  0  0  0  0
   -7.6780   -4.2400    1.3020 H   0  0  0  0  0  0  0  0  0  0  0  0
   -8.3150   -6.4340    2.0610 H   0  0  0  0  0  0  0  0  0  0  0  0
   -8.8640   -7.5110    4.1550 H   0  0  0  0  0  0  0  0  0  0  0  0
   -9.9830   -7.9090    6.2500 H   0  0  0  0  0  0  0  0  0  0  0  0
  -12.2520   -8.1620    7.1000 H   0  0  0  0  0  0  0  0  0  0  0  0
  -14.3000   -9.2430    7.1220 H   0  0  0  0  0  0  0  0  0  0  0  0
  -13.8700  -12.2740    7.2870 H   0  0  0  0  0  0  0  0  0  0  0  0
  -13.4250  -11.0930    8.5300 H   0  0  0  0  0  0  0  0  0  0  0  0
  -15.1270  -11.3460    8.1110 H   0  0  0  0  0  0  0  0  0  0  0  0
  -15.8830  -10.7200    5.9370 H   0  0  0  0  0  0  0  0  0  0  0  0
  -12.6350  -11.9050    4.9930 H   0  0  0  0  0  0  0  0  0  0  0  0
  -10.3760  -11.6340    4.1000 H   0  0  0  0  0  0  0  0  0  0  0  0
   -8.0310  -11.6560    4.8990 H   0  0  0  0  0  0  0  0  0  0  0  0
  -19.9390   -2.2110    3.1860 C   0  0  0  0  0  0  0  0  0  0  0  0
  -21.1490   -2.9540    3.1510 O   0  0  0  0  0  0  0  0  0  0  0  0
  -21.0500   -4.3090    3.3090 C   0  0  0  0  0  0  0  0  0  0  0  0
  -19.8780   -5.0320    3.5300 C   0  0  0  0  0  0  0  0  0  0  0  0
  -19.9110   -6.4290    3.6730 C   0  0  0  0  0  0  0  0  0  0  0  0
  -18.6880   -7.2170    3.8930 C   0  0  0  0  0  0  0  0  0  0  0  0
  -17.5260   -6.9780    3.1510 C   0  0  0  0  0  0  0  0  0  0  0  0
  -16.3770   -7.7420    3.3590 C   0  0  0  0  0  0  0  0  0  0  0  0
  -16.3650   -8.7700    4.3130 C   0  0  0  0  0  0  0  0  0  0  0  0
  -15.0610   -9.4480    4.5630 C   0  0  0  0  0  0  0  0  0  0  0  0
  -14.0870   -9.0980    3.9040 O   0  0  0  0  0  0  0  0  0  0  0  0
  -17.5190   -9.0250    5.0520 C   0  0  0  0  0  0  0  0  0  0  0  0
  -18.6630   -8.2520    4.8440 C   0  0  0  0  0  0  0  0  0  0  0  0
  -21.1540   -7.0750    3.6000 C   0  0  0  0  0  0  0  0  0  0  0  0
  -22.3470   -6.3740    3.3810 C   0  0  0  0  0  0  0  0  0  0  0  0
  -23.6330   -7.0810    3.3070 C   0  0  0  0  0  0  0  0  0  0  0  0
  -23.7500   -8.2990    2.6190 C   0  0  0  0  0  0  0  0  0  0  0  0
  -24.9650   -8.9780    2.5620 C   0  0  0  0  0  0  0  0  0  0  0  0
  -26.1000   -8.4510    3.1890 C   0  0  0  0  0  0  0  0  0  0  0  0
  -27.3910   -9.2310    3.1640 C   0  0  2  0  0  0  0  0  0  0  0  0
  -28.4200   -8.5250    2.2800 C   0  0  0  0  0  0  0  0  0  0  0  0
  -27.9380   -9.5160    4.4840 N   0  0  0  0  0  0  0  0  0  0  0  0
  -25.9970   -7.2360    3.8740 C   0  0  0  0  0  0  0  0  0  0  0  0
  -24.7760   -6.5660    3.9400 C   0  0  0  0  0  0  0  0  0  0  0  0
  -22.2690   -4.9830    3.2350 C   0  0  0  0  0  0  0  0  0  0  0  0
  -19.2670   -2.5130    2.3760 H   0  0  0  0  0  0  0  0  0  0  0  0
  -20.1930   -1.1570    3.0350 H   0  0  0  0  0  0  0  0  0  0  0  0
  -19.4500   -2.2990    4.1620 H   0  0  0  0  0  0  0  0  0  0  0  0
  -18.9220   -4.5240    3.6070 H   0  0  0  0  0  0  0  0  0  0  0  0
  -17.4990   -6.1950    2.3960 H   0  0  0  0  0  0  0  0  0  0  0  0
  -15.4800   -7.5140    2.7840 H   0  0  0  0  0  0  0  0  0  0  0  0
  -17.5730   -9.7910    5.8150 H   0  0  0  0  0  0  0  0  0  0  0  0
  -19.5430   -8.4590    5.4520 H   0  0  0  0  0  0  0  0  0  0  0  0
  -21.1960   -8.1580    3.7170 H   0  0  0  0  0  0  0  0  0  0  0  0
  -22.8890   -8.7400    2.1220 H   0  0  0  0  0  0  0  0  0  0  0  0
  -25.0090   -9.9360    2.0490 H   0  0  0  0  0  0  0  0  0  0  0  0
  -27.2000  -10.2190    2.7240 H   0  0  0  0  0  0  0  0  0  0  0  0
  -28.6870   -7.5380    2.6730 H   0  0  0  0  0  0  0  0  0  0  0  0
  -28.0320   -8.3890    1.2640 H   0  0  0  0  0  0  0  0  0  0  0  0
  -29.3420   -9.1130    2.2110 H   0  0  0  0  0  0  0  0  0  0  0  0
  -28.9090   -9.7810    4.4550 H   0  0  0  0  0  0  0  0  0  0  0  0
  -26.8540   -6.8320    4.4070 H   0  0  0  0  0  0  0  0  0  0  0  0
  -24.7180   -5.6500    4.5220 H   0  0  0  0  0  0  0  0  0  0  0  0
  -23.1710   -4.4060    3.0470 H   0  0  0  0  0  0  0  0  0  0  0  0
  -26.3090  -18.6540    7.7270 C   0  0  0  0  0  0  0  0  0  0  0  0
  -27.6400  -18.7220    8.2200 O   0  0  0  0  0  0  0  0  0  0  0  0
  -28.3930  -17.5870    8.1350 C   0  0  0  0  0  0  0  0  0  0  0  0
  -27.9860  -16.3590    7.6090 C   0  0  0  0  0  0  0  0  0  0  0  0
  -28.8600  -15.2600    7.5810 C   0  0  0  0  0  0  0  0  0  0  0  0
  -28.4480  -13.9520    7.0420 C   0  0  0  0  0  0  0  0  0  0  0  0
  -27.2010  -13.3980    7.3680 C   0  0  0  0  0  0  0  0  0  0  0  0
  -26.8230  -12.1530    6.8520 C   0  0  0  0  0  0  0  0  0  0  0  0
  -27.6770  -11.4380    6.0100 C   0  0  0  0  0  0  0  0  0  0  0  0
  -27.1380  -10.1830    5.4000 C   0  0  0  0  0  0  0  0  0  0  0  0
  -25.9930   -9.8470    5.6830 O   0  0  0  0  0  0  0  0  0  0  0  0
  -28.9290  -11.9710    5.6910 C   0  0  0  0  0  0  0  0  0  0  0  0
  -29.3000  -13.2210    6.2050 C   0  0  0  0  0  0  0  0  0  0  0  0
  -30.1590  -15.4310    8.0910 C   0  0  0  0  0  0  0  0  0  0  0  0
  -30.5910  -16.6510    8.6300 C   0  0  0  0  0  0  0  0  0  0  0  0
  -31.9470  -16.7980    9.1740 C   0  0  0  0  0  0  0  0  0  0  0  0
  -32.5110  -15.7990    9.9840 C   0  0  0  0  0  0  0  0  0  0  0  0
  -33.8110  -15.9190   10.4720 C   0  0  0  0  0  0  0  0  0  0  0  0
  -34.5790  -17.0490   10.1650 C   0  0  0  0  0  0  0  0  0  0  0  0
  -36.0260  -17.1080   10.6050 C   0  0  2  0  0  0  0  0  0  0  0  0
  -36.1790  -18.1690   11.6970 C   0  0  0  0  0  0  0  0  0  0  0  0
  -36.9670  -17.3310    9.5080 N   0  0  0  0  0  0  0  0  0  0  0  0
  -34.0150  -18.0650    9.3820 C   0  0  0  0  0  0  0  0  0  0  0  0
  -32.7210  -17.9320    8.8830 C   0  0  0  0  0  0  0  0  0  0  0  0
  -29.6870  -17.7190    8.6390 C   0  0  0  0  0  0  0  0  0  0  0  0
  -25.7170  -17.9270    8.2910 H   0  0  0  0  0  0  0  0  0  0  0  0
  -25.8520  -19.6380    7.8680 H   0  0  0  0  0  0  0  0  0  0  0  0
  -26.2970  -18.4310    6.6550 H   0  0  0  0  0  0  0  0  0  0  0  0
  -26.9860  -16.2380    7.2040 H   0  0  0  0  0  0  0  0  0  0  0  0
  -26.5200  -13.9190    8.0300 H   0  0  0  0  0  0  0  0  0  0  0  0
  -25.8390  -11.7640    7.1010 H   0  0  0  0  0  0  0  0  0  0  0  0
  -29.6330  -11.4760    5.0370 H   0  0  0  0  0  0  0  0  0  0  0  0
  -30.2710  -13.6240    5.9150 H   0  0  0  0  0  0  0  0  0  0  0  0
  -30.8490  -14.5890    8.0740 H   0  0  0  0  0  0  0  0  0  0  0  0
  -31.9490  -14.9000   10.2260 H   0  0  0  0  0  0  0  0  0  0  0  0
  -34.2320  -15.1040   11.0550 H   0  0  0  0  0  0  0  0  0  0  0  0
  -36.3120  -16.1390   11.0320 H   0  0  0  0  0  0  0  0  0  0  0  0
  -35.9110  -19.1690   11.3380 H   0  0  0  0  0  0  0  0  0  0  0  0
  -35.5290  -17.9400   12.5520 H   0  0  0  0  0  0  0  0  0  0  0  0
  -37.2100  -18.2150   12.0610 H   0  0  0  0  0  0  0  0  0  0  0  0
  -37.8920  -17.6320    9.7810 H   0  0  0  0  0  0  0  0  0  0  0  0
  -34.6040  -18.9370    9.1060 H   0  0  0  0  0  0  0  0  0  0  0  0
  -32.3330  -18.7110    8.2300 H   0  0  0  0  0  0  0  0  0  0  0  0
  -29.9820  -18.6770    9.0600 H   0  0  0  0  0  0  0  0  0  0  0  0
    7.1730   -4.7230    0.7660 C   0  0  0  0  0  0  0  0  0  0  0  0
    6.6270   -3.5260    1.3090 O   0  0  0  0  0  0  0  0  0  0  0  0
    6.4850   -5.0750   -0.0090 H   0  0  0  0  0  0  0  0  0  0  0  0
    7.2100   -5.4750    1.5580 H   0  0  0  0  0  0  0  0  0  0  0  0
    8.1750   -4.5910    0.3490 H   0  0  0  0  0  0  0  0  0  0  0  0
  -34.2020  -14.8560    6.7800 C   0  0  0  0  0  0  0  0  0  0  0  0
  -35.7190  -15.0510    6.9450 C   0  0  0  0  0  0  0  0  0  0  0  0
  -36.3430  -13.7190    7.3590 C   0  0  0  0  0  0  0  0  0  0  0  0
  -36.2740  -15.5760    5.6190 C   0  0  0  0  0  0  0  0  0  0  0  0
  -35.8690  -16.0000    8.0260 O   0  0  0  0  0  0  0  0  0  0  0  0
  -37.0560  -16.5190    8.4030 C   0  0  0  0  0  0  0  0  0  0  0  0
  -38.1300  -16.3280    7.8500 O   0  0  0  0  0  0  0  0  0  0  0  0
  -33.9660  -14.1370    5.9880 H   0  0  0  0  0  0  0  0  0  0  0  0
  -33.7500  -14.4930    7.7090 H   0  0  0  0  0  0  0  0  0  0  0  0
  -33.7080  -15.8050    6.5400 H   0  0  0  0  0  0  0  0  0  0  0  0
  -35.9690  -13.4110    8.3430 H   0  0  0  0  0  0  0  0  0  0  0  0
  -37.4300  -13.7980    7.4500 H   0  0  0  0  0  0  0  0  0  0  0  0
  -36.1150  -12.9270    6.6390 H   0  0  0  0  0  0  0  0  0  0  0  0
  -35.8730  -16.5720    5.3970 H   0  0  0  0  0  0  0  0  0  0  0  0
  -37.3630  -15.6680    5.6360 H   0  0  0  0  0  0  0  0  0  0  0  0
  -36.0160  -14.9070    4.7910 H   0  0  0  0  0  0  0  0  0  0  0  0
  1 28  1  0  0  0  0
  1  2  1  0  0  0  0
  2  3  1  0  0  0  0
  3  4  2  0  0  0  0
  4  5  1  0  0  0  0
  4 29  1  0  0  0  0
  5  6  1  0  0  0  0
  6 13  2  0  0  0  0
  7  8  2  0  0  0  0
  6  7  1  0  0  0  0
  8  9  1  0  0  0  0
  9 10  1  0  0  0  0
  9 12  2  0  0  0  0
 10178  1  0  0  0  0
 10 11  2  0  0  0  0
 12 32  1  0  0  0  0
 12 13  1  0  0  0  0
 13 33  1  0  0  0  0
 14 34  1  0  0  0  0
  5 14  2  0  0  0  0
 14 15  1  0  0  0  0
 15 16  1  0  0  0  0
 16 24  1  0  0  0  0
 16 17  2  0  0  0  0
 17 18  1  0  0  0  0
 18 19  2  0  0  0  0
 19 23  1  0  0  0  0
 20 37  1  0  0  0  0
 19 20  1  0  0  0  0
 20 22  1  0  0  0  0
 21 38  1  0  0  0  0
 20 21  1  0  0  0  0
 22 54  1  0  0  0  0
 23 24  2  0  0  0  0
 23 42  1  0  0  0  0
 24 43  1  0  0  0  0
 15 25  2  0  0  0  0
  3 25  1  0  0  0  0
  1 26  1  0  0  0  0
  1 27  1  0  0  0  0
  7 30  1  0  0  0  0
  8 31  1  0  0  0  0
 17 35  1  0  0  0  0
 18 36  1  0  0  0  0
 21 39  1  0  0  0  0
 21 40  1  0  0  0  0
 22 41  1  0  0  0  0
 25 44  1  0  0  0  0
 45 71  1  0  0  0  0
 45 46  1  0  0  0  0
 45 70  1  0  0  0  0
 46 47  1  0  0  0  0
 47 69  2  0  0  0  0
 48 49  2  0  0  0  0
 47 48  1  0  0  0  0
 49 58  1  0  0  0  0
 50 51  2  0  0  0  0
 49 50  1  0  0  0  0
 51 74  1  0  0  0  0
 52 75  1  0  0  0  0
 51 52  1  0  0  0  0
 52 53  2  0  0  0  0
 54 55  2  0  0  0  0
 53 54  1  0  0  0  0
 53 56  1  0  0  0  0
 56 57  2  0  0  0  0
 50 57  1  0  0  0  0
 58 78  1  0  0  0  0
 58 59  2  0  0  0  0
 59 60  1  0  0  0  0
 60 61  2  0  0  0  0
 61 79  1  0  0  0  0
 61 62  1  0  0  0  0
 62 80  1  0  0  0  0
 62 63  2  0  0  0  0
 63 64  1  0  0  0  0
 64 81  1  0  0  0  0
 64 65  1  0  0  0  0
 65 84  1  0  0  0  0
 65 83  1  0  0  0  0
 66 85  1  0  0  0  0
 64 66  1  0  0  0  0
 63 67  1  0  0  0  0
 60 68  1  0  0  0  0
 67 68  2  0  0  0  0
 59 69  1  0  0  0  0
 69 88  1  0  0  0  0
 45 72  1  0  0  0  0
 48 73  1  0  0  0  0
 56 76  1  0  0  0  0
 57 77  1  0  0  0  0
 65 82  1  0  0  0  0
 67 86  1  0  0  0  0
 68 87  1  0  0  0  0
 89116  1  0  0  0  0
 89 90  1  0  0  0  0
 90 91  1  0  0  0  0
 91 92  2  0  0  0  0
 92117  1  0  0  0  0
 92 93  1  0  0  0  0
 93 94  1  0  0  0  0
 94101  2  0  0  0  0
 95 96  2  0  0  0  0
 94 95  1  0  0  0  0
 96 97  1  0  0  0  0
 97 98  1  0  0  0  0
 97100  2  0  0  0  0
 66 98  1  0  0  0  0
 98 99  2  0  0  0  0
100120  1  0  0  0  0
100101  1  0  0  0  0
101121  1  0  0  0  0
 93102  2  0  0  0  0
102122  1  0  0  0  0
102103  1  0  0  0  0
103104  1  0  0  0  0
104112  1  0  0  0  0
104105  2  0  0  0  0
105106  1  0  0  0  0
106107  2  0  0  0  0
107111  1  0  0  0  0
108125  1  0  0  0  0
107108  1  0  0  0  0
108110  1  0  0  0  0
109126  1  0  0  0  0
108109  1  0  0  0  0
110142  1  0  0  0  0
111112  2  0  0  0  0
111130  1  0  0  0  0
112131  1  0  0  0  0
 91113  1  0  0  0  0
103113  2  0  0  0  0
 89114  1  0  0  0  0
 89115  1  0  0  0  0
 95118  1  0  0  0  0
 96119  1  0  0  0  0
105123  1  0  0  0  0
106124  1  0  0  0  0
109127  1  0  0  0  0
109128  1  0  0  0  0
110129  1  0  0  0  0
113132  1  0  0  0  0
133159  1  0  0  0  0
133134  1  0  0  0  0
133158  1  0  0  0  0
134135  1  0  0  0  0
135157  2  0  0  0  0
135136  1  0  0  0  0
136137  2  0  0  0  0
137146  1  0  0  0  0
138139  2  0  0  0  0
137138  1  0  0  0  0
139162  1  0  0  0  0
140163  1  0  0  0  0
139140  1  0  0  0  0
140141  2  0  0  0  0
142143  2  0  0  0  0
141142  1  0  0  0  0
141144  1  0  0  0  0
144145  2  0  0  0  0
138145  1  0  0  0  0
146147  2  0  0  0  0
147157  1  0  0  0  0
147148  1  0  0  0  0
148149  2  0  0  0  0
149167  1  0  0  0  0
149150  1  0  0  0  0
150168  1  0  0  0  0
150151  2  0  0  0  0
151152  1  0  0  0  0
152169  1  0  0  0  0
152153  1  0  0  0  0
153172  1  0  0  0  0
153171  1  0  0  0  0
154173  1  0  0  0  0
152154  1  0  0  0  0
151155  1  0  0  0  0
148156  1  0  0  0  0
155156  2  0  0  0  0
157176  1  0  0  0  0
133160  1  0  0  0  0
136161  1  0  0  0  0
144164  1  0  0  0  0
145165  1  0  0  0  0
146166  1  0  0  0  0
153170  1  0  0  0  0
155174  1  0  0  0  0
156175  1  0  0  0  0
177178  1  0  0  0  0
177180  1  0  0  0  0
177179  1  0  0  0  0
177181  1  0  0  0  0
182183  1  0  0  0  0
182190  1  0  0  0  0
183184  1  0  0  0  0
183186  1  0  0  0  0
184193  1  0  0  0  0
184192  1  0  0  0  0
185196  1  0  0  0  0
183185  1  0  0  0  0
186187  1  0  0  0  0
154187  1  0  0  0  0
187188  2  0  0  0  0
182189  1  0  0  0  0
182191  1  0  0  0  0
184194  1  0  0  0  0
185195  1  0  0  0  0
185197  1  0  0  0  0
M  END
> <atom.dprop.PartialCharge>
0.110240 -0.323230 0.121440 -0.192440 -0.008660 -0.006490 -0.132780 -0.067570 -0.132360 0.648970 -0.542690 -0.067570 -0.132780 -0.137670 -0.006270 -0.034790 -0.116000 -0.121520 -0.094980 0.150280 -0.109870 -0.570290 -0.121520 -0.116000 -0.136980 0.044710 0.044710 0.044710 0.142430 0.141040 0.155860 0.155860 0.141040 0.140330 0.137870 0.135970 0.088560 0.045110 0.045110 0.045110 0.310740 0.135970 0.137870 0.154560 0.112810 -0.327100 0.125200 -0.136430 -0.012520 -0.015610 -0.128270 -0.091780 -0.139610 0.675740 -0.606200 -0.091780 -0.128270 -0.142400 -0.002600 -0.033820 -0.117940 -0.120880 -0.097170 0.152600 -0.109010 -0.572210 -0.120880 -0.117940 -0.190150 0.045850 0.045850 0.045850 0.155870 0.141940 0.147860 0.147860 0.141940 0.138300 0.137050 0.137460 0.084990 0.045800 0.045800 0.045800 0.312530 0.137460 0.137050 0.142750 0.113640 -0.328820 0.122380 -0.140050 -0.013370 -0.012870 -0.128320 -0.091840 -0.139700 0.675310 -0.609150 -0.091840 -0.128320 -0.142460 0.001290 -0.036410 -0.117090 -0.113700 -0.105000 0.148010 -0.102410 -0.561740 -0.113700 -0.117090 -0.192300 0.045610 0.045610 0.045610 0.153660 0.141390 0.147980 0.147980 0.141390 0.140900 0.134590 0.135900 0.087350 0.046070 0.046070 0.046070 0.307250 0.135900 0.134590 0.143240 0.113020 -0.325170 0.126190 -0.190230 -0.009930 -0.010770 -0.128220 -0.092140 -0.139310 0.675520 -0.605770 -0.092140 -0.128220 -0.141400 -0.005970 -0.032300 -0.116600 -0.118500 -0.097750 0.166400 -0.110730 -0.562880 -0.118500 -0.116600 -0.137010 0.045880 0.045880 0.045880 0.141130 0.139160 0.144780 0.144780 0.139160 0.139220 0.138280 0.136870 0.082110 0.046810 0.046810 0.046810 0.329710 0.136870 0.138280 0.154250 0.126390 -0.439710 0.049930 0.049930 0.049930 -0.114650 0.186570 -0.114650 -0.114650 -0.449900 0.754150 -0.603980 0.051950 0.051950 0.051950 0.051950 0.051950 0.051950 0.051950 0.051950 0.051950

$$$$
