pmp_tetramer.pdb
 OpenBabel09052517473D

197208  0  0  1  0  0  0  0  0999 V2000
    2.0730    4.9960   -0.1680 C   0  0  0  0  0  0  0  0  0  0  0  0
    0.8600    4.2530   -0.2310 O   0  0  0  0  0  0  0  0  0  0  0  0
    0.9490    2.8890   -0.1540 C   0  0  0  0  0  0  0  0  0  0  0  0
    2.1170    2.1500    0.0010 C   0  0  0  0  0  0  0  0  0  0  0  0
    2.0900    0.7380    0.0670 C   0  0  0  0  0  0  0  0  0  0  0  0
    3.3300   -0.0470    0.2320 C   0  0  0  0  0  0  0  0  0  0  0  0
    4.4950    0.2690   -0.4870 C   0  0  0  0  0  0  0  0  0  0  0  0
    5.6750   -0.4660   -0.3240 C   0  0  0  0  0  0  0  0  0  0  0  0
    5.7120   -1.5470    0.5600 C   0  0  0  0  0  0  0  0  0  0  0  0
    6.9510   -2.3670    0.6240 C   0  0  0  0  0  0  0  0  0  0  0  0
    7.9460   -2.1570   -0.0490 O   0  0  0  0  0  0  0  0  0  0  0  0
    4.5570   -1.8880    1.2730 C   0  0  0  0  0  0  0  0  0  0  0  0
    3.3840   -1.1440    1.1110 C   0  0  0  0  0  0  0  0  0  0  0  0
    0.8370    0.1060   -0.0220 C   0  0  0  0  0  0  0  0  0  0  0  0
   -0.3560    0.8300   -0.1730 C   0  0  0  0  0  0  0  0  0  0  0  0
   -1.6570    0.1430   -0.2650 C   0  0  0  0  0  0  0  0  0  0  0  0
   -1.8060   -1.0350   -1.0170 C   0  0  0  0  0  0  0  0  0  0  0  0
   -3.0320   -1.6900   -1.0920 C   0  0  0  0  0  0  0  0  0  0  0  0
   -4.1460   -1.1760   -0.4200 C   0  0  0  0  0  0  0  0  0  0  0  0
   -5.4510   -1.9290   -0.4490 C   0  0  2  0  0  0  0  0  0  0  0  0
   -6.4740   -1.1620   -1.2870 C   0  0  0  0  0  0  0  0  0  0  0  0
   -5.9640   -2.2410    0.8820 N   0  0  0  0  0  0  0  0  0  0  0  0
   -4.0120    0.0000    0.3280 C   0  0  0  0  0  0  0  0  0  0  0  0
   -2.7810    0.6410    0.4110 C   0  0  0  0  0  0  0  0  0  0  0  0
   -0.2730    2.2280   -0.2370 C   0  0  0  0  0  0  0  0  0  0  0  0
    2.7290    4.7510   -1.0070 H   0  0  0  0  0  0  0  0  0  0  0  0
    1.8140    6.0560   -0.2450 H   0  0  0  0  0  0  0  0  0  0  0  0
    2.5780    4.8460    0.7910 H   0  0  0  0  0  0  0  0  0  0  0  0
    3.0760    2.6530    0.0940 H   0  0  0  0  0  0  0  0  0  0  0  0
    4.4920    1.0850   -1.2080 H   0  0  0  0  0  0  0  0  0  0  0  0
    6.5550   -0.2050   -0.9090 H   0  0  0  0  0  0  0  0  0  0  0  0
    4.5440   -2.7410    1.9480 H   0  0  0  0  0  0  0  0  0  0  0  0
    2.5070   -1.4350    1.6860 H   0  0  0  0  0  0  0  0  0  0  0  0
    0.7880   -0.9810    0.0310 H   0  0  0  0  0  0  0  0  0  0  0  0
   -0.9610   -1.4640   -1.5500 H   0  0  0  0  0  0  0  0  0  0  0  0
   -3.1040   -2.6220   -1.6480 H   0  0  0  0  0  0  0  0  0  0  0  0
   -5.2950   -2.9050   -0.9270 H   0  0  0  0  0  0  0  0  0  0  0  0
   -6.7070   -0.1820   -0.8550 H   0  0  0  0  0  0  0  0  0  0  0  0
   -6.0920   -0.9960   -2.3020 H   0  0  0  0  0  0  0  0  0  0  0  0
   -7.4130   -1.7180   -1.3700 H   0  0  0  0  0  0  0  0  0  0  0  0
   -6.9360   -2.4900    0.8720 H   0  0  0  0  0  0  0  0  0  0  0  0
   -4.8540    0.3830    0.9000 H   0  0  0  0  0  0  0  0  0  0  0  0
   -2.7000    1.5220    1.0460 H   0  0  0  0  0  0  0  0  0  0  0  0
   -1.1770    2.8250   -0.3630 H   0  0  0  0  0  0  0  0  0  0  0  0
   -4.3720  -11.5990    3.5240 C   0  0  0  0  0  0  0  0  0  0  0  0
   -5.7100  -11.6790    3.9960 O   0  0  0  0  0  0  0  0  0  0  0  0
   -6.4480  -10.5290    3.9890 C   0  0  0  0  0  0  0  0  0  0  0  0
   -6.0270   -9.2810    3.5360 C   0  0  0  0  0  0  0  0  0  0  0  0
   -6.8870   -8.1680    3.5840 C   0  0  0  0  0  0  0  0  0  0  0  0
   -6.4550   -6.8410    3.1180 C   0  0  0  0  0  0  0  0  0  0  0  0
   -5.1920   -6.3280    3.4470 C   0  0  0  0  0  0  0  0  0  0  0  0
   -4.7990   -5.0620    3.0120 C   0  0  0  0  0  0  0  0  0  0  0  0
   -5.6660   -4.2710    2.2450 C   0  0  0  0  0  0  0  0  0  0  0  0
   -5.1450   -2.9740    1.7340 C   0  0  0  0  0  0  0  0  0  0  0  0
   -4.0030   -2.6450    2.0340 O   0  0  0  0  0  0  0  0  0  0  0  0
   -6.9230   -4.7740    1.9050 C   0  0  0  0  0  0  0  0  0  0  0  0
   -7.3060   -6.0430    2.3370 C   0  0  0  0  0  0  0  0  0  0  0  0
   -8.1820   -8.3500    4.0950 C   0  0  0  0  0  0  0  0  0  0  0  0
   -8.6340   -9.5920    4.5600 C   0  0  0  0  0  0  0  0  0  0  0  0
   -9.9920   -9.7550    5.1020 C   0  0  0  0  0  0  0  0  0  0  0  0
  -10.5580   -8.7830    5.9440 C   0  0  0  0  0  0  0  0  0  0  0  0
  -11.8480   -8.9300    6.4490 C   0  0  0  0  0  0  0  0  0  0  0  0
  -12.6030  -10.0630    6.1280 C   0  0  0  0  0  0  0  0  0  0  0  0
  -14.0230  -10.1760    6.6250 C   0  0  2  0  0  0  0  0  0  0  0  0
  -14.1140  -11.2520    7.7070 C   0  0  0  0  0  0  0  0  0  0  0  0
  -14.9910  -10.4000    5.5570 N   0  0  0  0  0  0  0  0  0  0  0  0
  -12.0490  -11.0420    5.2960 C   0  0  0  0  0  0  0  0  0  0  0  0
  -10.7640  -10.8830    4.7840 C   0  0  0  0  0  0  0  0  0  0  0  0
   -7.7410  -10.6720    4.4960 C   0  0  0  0  0  0  0  0  0  0  0  0
   -3.7790  -10.9010    4.1250 H   0  0  0  0  0  0  0  0  0  0  0  0
   -3.9250  -12.5920    3.6310 H   0  0  0  0  0  0  0  0  0  0  0  0
   -4.3430  -11.3330    2.4630 H   0  0  0  0  0  0  0  0  0  0  0  0
   -5.0310   -9.1490    3.1270 H   0  0  0  0  0  0  0  0  0  0  0  0
   -4.4990   -6.9070    4.0530 H   0  0  0  0  0  0  0  0  0  0  0  0
   -3.8020   -4.7030    3.2620 H   0  0  0  0  0  0  0  0  0  0  0  0
   -7.6280   -4.2300    1.2880 H   0  0  0  0  0  0  0  0  0  0  0  0
   -8.2880   -6.4140    2.0400 H   0  0  0  0  0  0  0  0  0  0  0  0
   -8.8630   -7.5000    4.1310 H   0  0  0  0  0  0  0  0  0  0  0  0
  -10.0010   -7.8880    6.2120 H   0  0  0  0  0  0  0  0  0  0  0  0
  -12.2680   -8.1420    7.0690 H   0  0  0  0  0  0  0  0  0  0  0  0
  -14.3220   -9.2220    7.0800 H   0  0  0  0  0  0  0  0  0  0  0  0
  -13.8640  -12.2450    7.3180 H   0  0  0  0  0  0  0  0  0  0  0  0
  -13.4230  -11.0300    8.5290 H   0  0  0  0  0  0  0  0  0  0  0  0
  -15.1250  -11.3040    8.1240 H   0  0  0  0  0  0  0  0  0  0  0  0
  -15.8720  -10.7410    5.9010 H   0  0  0  0  0  0  0  0  0  0  0  0
  -12.6410  -11.9030    4.9950 H   0  0  0  0  0  0  0  0  0  0  0  0
  -10.3840  -11.6390    4.1000 H   0  0  0  0  0  0  0  0  0  0  0  0
   -8.0490  -11.6520    4.8560 H   0  0  0  0  0  0  0  0  0  0  0  0
  -19.9680   -2.2360    3.2080 C   0  0  0  0  0  0  0  0  0  0  0  0
  -21.1690   -2.9950    3.1770 O   0  0  0  0  0  0  0  0  0  0  0  0
  -21.0640   -4.3440    3.3220 C   0  0  0  0  0  0  0  0  0  0  0  0
  -19.8850   -5.0640    3.5340 C   0  0  0  0  0  0  0  0  0  0  0  0
  -19.9100   -6.4570    3.6770 C   0  0  0  0  0  0  0  0  0  0  0  0
  -18.6800   -7.2340    3.8990 C   0  0  0  0  0  0  0  0  0  0  0  0
  -17.5140   -6.9660    3.1650 C   0  0  0  0  0  0  0  0  0  0  0  0
  -16.3550   -7.7150    3.3760 C   0  0  0  0  0  0  0  0  0  0  0  0
  -16.3400   -8.7580    4.3120 C   0  0  0  0  0  0  0  0  0  0  0  0
  -15.0480   -9.4580    4.5370 C   0  0  0  0  0  0  0  0  0  0  0  0
  -14.0800   -9.1270    3.8600 O   0  0  0  0  0  0  0  0  0  0  0  0
  -17.4930   -9.0230    5.0530 C   0  0  0  0  0  0  0  0  0  0  0  0
  -18.6440   -8.2680    4.8440 C   0  0  0  0  0  0  0  0  0  0  0  0
  -21.1470   -7.1190    3.6120 C   0  0  0  0  0  0  0  0  0  0  0  0
  -22.3500   -6.4180    3.4030 C   0  0  0  0  0  0  0  0  0  0  0  0
  -23.6340   -7.1280    3.3350 C   0  0  0  0  0  0  0  0  0  0  0  0
  -23.7540   -8.3480    2.6520 C   0  0  0  0  0  0  0  0  0  0  0  0
  -24.9720   -9.0180    2.5890 C   0  0  0  0  0  0  0  0  0  0  0  0
  -26.1050   -8.4770    3.2050 C   0  0  0  0  0  0  0  0  0  0  0  0
  -27.4030   -9.2410    3.1710 C   0  0  2  0  0  0  0  0  0  0  0  0
  -28.4030   -8.5240    2.2620 C   0  0  0  0  0  0  0  0  0  0  0  0
  -27.9660   -9.4990    4.4920 N   0  0  0  0  0  0  0  0  0  0  0  0
  -25.9980   -7.2630    3.8920 C   0  0  0  0  0  0  0  0  0  0  0  0
  -24.7740   -6.6040    3.9640 C   0  0  0  0  0  0  0  0  0  0  0  0
  -22.2800   -5.0310    3.2620 C   0  0  0  0  0  0  0  0  0  0  0  0
  -19.2950   -2.5270    2.3940 H   0  0  0  0  0  0  0  0  0  0  0  0
  -20.2340   -1.1860    3.0600 H   0  0  0  0  0  0  0  0  0  0  0  0
  -19.4720   -2.3200    4.1810 H   0  0  0  0  0  0  0  0  0  0  0  0
  -18.9310   -4.5500    3.5990 H   0  0  0  0  0  0  0  0  0  0  0  0
  -17.4930   -6.1770    2.4160 H   0  0  0  0  0  0  0  0  0  0  0  0
  -15.4550   -7.4650    2.8140 H   0  0  0  0  0  0  0  0  0  0  0  0
  -17.5380   -9.7930    5.8150 H   0  0  0  0  0  0  0  0  0  0  0  0
  -19.5240   -8.4920    5.4460 H   0  0  0  0  0  0  0  0  0  0  0  0
  -21.1860   -8.1980    3.7270 H   0  0  0  0  0  0  0  0  0  0  0  0
  -22.8940   -8.7970    2.1600 H   0  0  0  0  0  0  0  0  0  0  0  0
  -25.0240   -9.9760    2.0770 H   0  0  0  0  0  0  0  0  0  0  0  0
  -27.2230  -10.2370    2.7440 H   0  0  0  0  0  0  0  0  0  0  0  0
  -28.6680   -7.5340    2.6480 H   0  0  0  0  0  0  0  0  0  0  0  0
  -27.9830   -8.3910    1.2580 H   0  0  0  0  0  0  0  0  0  0  0  0
  -29.3290   -9.1010    2.1650 H   0  0  0  0  0  0  0  0  0  0  0  0
  -28.9280   -9.7860    4.4470 H   0  0  0  0  0  0  0  0  0  0  0  0
  -26.8560   -6.8540    4.4200 H   0  0  0  0  0  0  0  0  0  0  0  0
  -24.7150   -5.6870    4.5450 H   0  0  0  0  0  0  0  0  0  0  0  0
  -23.1830   -4.4530    3.0880 H   0  0  0  0  0  0  0  0  0  0  0  0
  -26.3140  -18.6360    7.7660 C   0  0  0  0  0  0  0  0  0  0  0  0
  -27.6600  -18.7050    8.2200 O   0  0  0  0  0  0  0  0  0  0  0  0
  -28.4090  -17.5650    8.1290 C   0  0  0  0  0  0  0  0  0  0  0  0
  -27.9940  -16.3420    7.6080 C   0  0  0  0  0  0  0  0  0  0  0  0
  -28.8640  -15.2420    7.5720 C   0  0  0  0  0  0  0  0  0  0  0  0
  -28.4420  -13.9430    7.0300 C   0  0  0  0  0  0  0  0  0  0  0  0
  -27.1940  -13.3880    7.3500 C   0  0  0  0  0  0  0  0  0  0  0  0
  -26.8140  -12.1470    6.8390 C   0  0  0  0  0  0  0  0  0  0  0  0
  -27.6770  -11.4250    6.0020 C   0  0  0  0  0  0  0  0  0  0  0  0
  -27.1680  -10.1520    5.4240 C   0  0  0  0  0  0  0  0  0  0  0  0
  -26.0480   -9.7720    5.7510 O   0  0  0  0  0  0  0  0  0  0  0  0
  -28.9170  -11.9710    5.6710 C   0  0  0  0  0  0  0  0  0  0  0  0
  -29.2900  -13.2140    6.1800 C   0  0  0  0  0  0  0  0  0  0  0  0
  -30.1690  -15.4060    8.0680 C   0  0  0  0  0  0  0  0  0  0  0  0
  -30.6120  -16.6220    8.6010 C   0  0  0  0  0  0  0  0  0  0  0  0
  -31.9730  -16.7700    9.1350 C   0  0  0  0  0  0  0  0  0  0  0  0
  -32.5490  -15.7690    9.9340 C   0  0  0  0  0  0  0  0  0  0  0  0
  -33.8450  -15.9000   10.4270 C   0  0  0  0  0  0  0  0  0  0  0  0
  -34.5930  -17.0470   10.1410 C   0  0  0  0  0  0  0  0  0  0  0  0
  -36.0330  -17.1200   10.5950 C   0  0  2  0  0  0  0  0  0  0  0  0
  -36.1440  -18.1640   11.7100 C   0  0  0  0  0  0  0  0  0  0  0  0
  -36.9760  -17.3540    9.5030 N   0  0  0  0  0  0  0  0  0  0  0  0
  -34.0250  -18.0610    9.3590 C   0  0  0  0  0  0  0  0  0  0  0  0
  -32.7370  -17.9130    8.8500 C   0  0  0  0  0  0  0  0  0  0  0  0
  -29.7080  -17.6940    8.6190 C   0  0  0  0  0  0  0  0  0  0  0  0
  -25.7360  -17.9080    8.3460 H   0  0  0  0  0  0  0  0  0  0  0  0
  -25.8620  -19.6210    7.9240 H   0  0  0  0  0  0  0  0  0  0  0  0
  -26.2690  -18.4170    6.6950 H   0  0  0  0  0  0  0  0  0  0  0  0
  -26.9890  -16.2240    7.2110 H   0  0  0  0  0  0  0  0  0  0  0  0
  -26.5050  -13.9130    8.0090 H   0  0  0  0  0  0  0  0  0  0  0  0
  -25.8290  -11.7530    7.0870 H   0  0  0  0  0  0  0  0  0  0  0  0
  -29.6180  -11.4800    5.0090 H   0  0  0  0  0  0  0  0  0  0  0  0
  -30.2580  -13.6200    5.8900 H   0  0  0  0  0  0  0  0  0  0  0  0
  -30.8570  -14.5610    8.0410 H   0  0  0  0  0  0  0  0  0  0  0  0
  -32.0020  -14.8570   10.1630 H   0  0  0  0  0  0  0  0  0  0  0  0
  -34.2820  -15.0820   10.9950 H   0  0  0  0  0  0  0  0  0  0  0  0
  -36.3300  -16.1510   11.0170 H   0  0  0  0  0  0  0  0  0  0  0  0
  -35.8640  -19.1670   11.3670 H   0  0  0  0  0  0  0  0  0  0  0  0
  -35.4740  -17.9040   12.5400 H   0  0  0  0  0  0  0  0  0  0  0  0
  -37.1610  -18.2190   12.1070 H   0  0  0  0  0  0  0  0  0  0  0  0
  -37.9040  -17.6380    9.7840 H   0  0  0  0  0  0  0  0  0  0  0  0
  -34.6060  -18.9410    9.0920 H   0  0  0  0  0  0  0  0  0  0  0  0
  -32.3450  -18.6890    8.1960 H   0  0  0  0  0  0  0  0  0  0  0  0
  -30.0110  -18.6500    9.0400 H   0  0  0  0  0  0  0  0  0  0  0  0
    7.1310   -4.6730    0.7790 C   0  0  0  0  0  0  0  0  0  0  0  0
    6.7240   -3.4560    1.3960 O   0  0  0  0  0  0  0  0  0  0  0  0
    6.3560   -4.9500    0.0570 H   0  0  0  0  0  0  0  0  0  0  0  0
    7.1790   -5.4520    1.5430 H   0  0  0  0  0  0  0  0  0  0  0  0
    8.1000   -4.5980    0.2790 H   0  0  0  0  0  0  0  0  0  0  0  0
  -34.1880  -14.8490    6.7980 C   0  0  0  0  0  0  0  0  0  0  0  0
  -35.7050  -15.0580    6.9520 C   0  0  0  0  0  0  0  0  0  0  0  0
  -36.3330  -13.7320    7.3780 C   0  0  0  0  0  0  0  0  0  0  0  0
  -36.2500  -15.5650    5.6170 C   0  0  0  0  0  0  0  0  0  0  0  0
  -35.8680  -16.0310    8.0110 O   0  0  0  0  0  0  0  0  0  0  0  0
  -37.0650  -16.5180    8.4110 C   0  0  0  0  0  0  0  0  0  0  0  0
  -38.1430  -16.2780    7.8880 O   0  0  0  0  0  0  0  0  0  0  0  0
  -33.9550  -14.1230    6.0110 H   0  0  0  0  0  0  0  0  0  0  0  0
  -33.7450  -14.4800    7.7280 H   0  0  0  0  0  0  0  0  0  0  0  0
  -33.6800  -15.7900    6.5560 H   0  0  0  0  0  0  0  0  0  0  0  0
  -35.9830  -13.4450    8.3770 H   0  0  0  0  0  0  0  0  0  0  0  0
  -37.4230  -13.8060    7.4360 H   0  0  0  0  0  0  0  0  0  0  0  0
  -36.0830  -12.9280    6.6780 H   0  0  0  0  0  0  0  0  0  0  0  0
  -35.8400  -16.5540    5.3790 H   0  0  0  0  0  0  0  0  0  0  0  0
  -37.3380  -15.6660    5.6310 H   0  0  0  0  0  0  0  0  0  0  0  0
  -35.9930  -14.8800    4.8010 H   0  0  0  0  0  0  0  0  0  0  0  0
  1 28  1  0  0  0  0
  2  1  1  0  0  0  0
  2  3  1  0  0  0  0
  3  4  1  0  0  0  0
  4  5  2  0  0  0  0
  4 29  1  0  0  0  0
  5  6  1  0  0  0  0
  6 13  1  0  0  0  0
  7  8  1  0  0  0  0
  7  6  2  0  0  0  0
  8  9  2  0  0  0  0
  9 10  1  0  0  0  0
  9 12  1  0  0  0  0
 10178  1  0  0  0  0
 11 10  2  0  0  0  0
 12 32  1  0  0  0  0
 13 12  2  0  0  0  0
 13 33  1  0  0  0  0
 14 34  1  0  0  0  0
 14  5  1  0  0  0  0
 15 14  2  0  0  0  0
 16 15  1  0  0  0  0
 16 24  1  0  0  0  0
 17 16  2  0  0  0  0
 18 17  1  0  0  0  0
 18 19  2  0  0  0  0
 19 23  1  0  0  0  0
 20 37  1  6  0  0  0
 20 19  1  0  0  0  0
 20 22  1  0  0  0  0
 21 38  1  0  0  0  0
 21 20  1  0  0  0  0
 22 54  1  0  0  0  0
 23 24  2  0  0  0  0
 23 42  1  0  0  0  0
 24 43  1  0  0  0  0
 25 15  1  0  0  0  0
 25  3  2  0  0  0  0
 26  1  1  0  0  0  0
 27  1  1  0  0  0  0
 30  7  1  0  0  0  0
 31  8  1  0  0  0  0
 35 17  1  0  0  0  0
 36 18  1  0  0  0  0
 39 21  1  0  0  0  0
 40 21  1  0  0  0  0
 41 22  1  0  0  0  0
 44 25  1  0  0  0  0
 45 71  1  0  0  0  0
 45 46  1  0  0  0  0
 45 70  1  0  0  0  0
 47 46  1  0  0  0  0
 47 69  1  0  0  0  0
 48 49  1  0  0  0  0
 48 47  2  0  0  0  0
 49 58  2  0  0  0  0
 50 51  1  0  0  0  0
 50 49  1  0  0  0  0
 51 74  1  0  0  0  0
 52 75  1  0  0  0  0
 52 51  2  0  0  0  0
 53 52  1  0  0  0  0
 54 55  2  0  0  0  0
 54 53  1  0  0  0  0
 56 53  2  0  0  0  0
 56 57  1  0  0  0  0
 57 50  2  0  0  0  0
 58 78  1  0  0  0  0
 58 59  1  0  0  0  0
 59 60  1  0  0  0  0
 60 61  1  0  0  0  0
 61 79  1  0  0  0  0
 61 62  2  0  0  0  0
 62 80  1  0  0  0  0
 63 62  1  0  0  0  0
 63 64  1  0  0  0  0
 64 81  1  1  0  0  0
 64 65  1  0  0  0  0
 65 84  1  0  0  0  0
 65 83  1  0  0  0  0
 66 85  1  0  0  0  0
 66 64  1  0  0  0  0
 67 63  2  0  0  0  0
 68 60  2  0  0  0  0
 68 67  1  0  0  0  0
 69 59  2  0  0  0  0
 69 88  1  0  0  0  0
 72 45  1  0  0  0  0
 73 48  1  0  0  0  0
 76 56  1  0  0  0  0
 77 57  1  0  0  0  0
 82 65  1  0  0  0  0
 86 67  1  0  0  0  0
 87 68  1  0  0  0  0
 89116  1  0  0  0  0
 90 89  1  0  0  0  0
 90 91  1  0  0  0  0
 91 92  1  0  0  0  0
 92117  1  0  0  0  0
 92 93  2  0  0  0  0
 93 94  1  0  0  0  0
 94101  1  0  0  0  0
 95 96  1  0  0  0  0
 95 94  2  0  0  0  0
 96 97  2  0  0  0  0
 97 98  1  0  0  0  0
 97100  1  0  0  0  0
 98 66  1  0  0  0  0
 99 98  2  0  0  0  0
100120  1  0  0  0  0
101100  2  0  0  0  0
101121  1  0  0  0  0
102 93  1  0  0  0  0
102122  1  0  0  0  0
103102  2  0  0  0  0
104103  1  0  0  0  0
104112  1  0  0  0  0
105104  2  0  0  0  0
106105  1  0  0  0  0
106107  2  0  0  0  0
107111  1  0  0  0  0
108125  1  6  0  0  0
108107  1  0  0  0  0
108110  1  0  0  0  0
109126  1  0  0  0  0
109108  1  0  0  0  0
110142  1  0  0  0  0
111112  2  0  0  0  0
111130  1  0  0  0  0
112131  1  0  0  0  0
113 91  2  0  0  0  0
113103  1  0  0  0  0
114 89  1  0  0  0  0
115 89  1  0  0  0  0
118 95  1  0  0  0  0
119 96  1  0  0  0  0
123105  1  0  0  0  0
124106  1  0  0  0  0
127109  1  0  0  0  0
128109  1  0  0  0  0
129110  1  0  0  0  0
132113  1  0  0  0  0
133159  1  0  0  0  0
133134  1  0  0  0  0
133158  1  0  0  0  0
135134  1  0  0  0  0
135157  1  0  0  0  0
136135  2  0  0  0  0
137136  1  0  0  0  0
137146  2  0  0  0  0
138139  1  0  0  0  0
138137  1  0  0  0  0
139162  1  0  0  0  0
140163  1  0  0  0  0
140139  2  0  0  0  0
141140  1  0  0  0  0
142143  2  0  0  0  0
142141  1  0  0  0  0
144141  2  0  0  0  0
144145  1  0  0  0  0
145138  2  0  0  0  0
146147  1  0  0  0  0
147157  2  0  0  0  0
147148  1  0  0  0  0
148149  1  0  0  0  0
149167  1  0  0  0  0
149150  2  0  0  0  0
150168  1  0  0  0  0
151150  1  0  0  0  0
151152  1  0  0  0  0
152169  1  1  0  0  0
152153  1  0  0  0  0
153172  1  0  0  0  0
153171  1  0  0  0  0
154173  1  0  0  0  0
154152  1  0  0  0  0
155151  2  0  0  0  0
156148  2  0  0  0  0
156155  1  0  0  0  0
157176  1  0  0  0  0
160133  1  0  0  0  0
161136  1  0  0  0  0
164144  1  0  0  0  0
165145  1  0  0  0  0
166146  1  0  0  0  0
170153  1  0  0  0  0
174155  1  0  0  0  0
175156  1  0  0  0  0
177178  1  0  0  0  0
177180  1  0  0  0  0
179177  1  0  0  0  0
181177  1  0  0  0  0
182183  1  0  0  0  0
182190  1  0  0  0  0
183184  1  0  0  0  0
183186  1  0  0  0  0
184193  1  0  0  0  0
184192  1  0  0  0  0
185196  1  0  0  0  0
185183  1  0  0  0  0
186187  1  0  0  0  0
187154  1  0  0  0  0
188187  2  0  0  0  0
189182  1  0  0  0  0
191182  1  0  0  0  0
194184  1  0  0  0  0
195185  1  0  0  0  0
197185  1  0  0  0  0
M  END
