pmp_tetramer.pdb
 OpenBabel07152516013D

197208  0  0  1  0  0  0  0  0999 V2000
    2.0770    4.9770   -0.1960 C   0  0  0  0  0  0  0  0  0  0  0  0
    0.8630    4.2410   -0.2310 O   0  0  0  0  0  0  0  0  0  0  0  0
    0.9570    2.8790   -0.1550 C   0  0  0  0  0  0  0  0  0  0  0  0
    2.1280    2.1390    0.0020 C   0  0  0  0  0  0  0  0  0  0  0  0
    2.0960    0.7340    0.0730 C   0  0  0  0  0  0  0  0  0  0  0  0
    3.3360   -0.0490    0.2350 C   0  0  0  0  0  0  0  0  0  0  0  0
    4.4920    0.2600   -0.5030 C   0  0  0  0  0  0  0  0  0  0  0  0
    5.6700   -0.4760   -0.3510 C   0  0  0  0  0  0  0  0  0  0  0  0
    5.7150   -1.5480    0.5430 C   0  0  0  0  0  0  0  0  0  0  0  0
    6.9450   -2.3810    0.5830 C   0  0  0  0  0  0  0  0  0  0  0  0
    7.9280   -2.1850   -0.1120 O   0  0  0  0  0  0  0  0  0  0  0  0
    4.5720   -1.8760    1.2810 C   0  0  0  0  0  0  0  0  0  0  0  0
    3.3990   -1.1340    1.1270 C   0  0  0  0  0  0  0  0  0  0  0  0
    0.8460    0.0980   -0.0110 C   0  0  0  0  0  0  0  0  0  0  0  0
   -0.3500    0.8190   -0.1670 C   0  0  0  0  0  0  0  0  0  0  0  0
   -1.6510    0.1370   -0.2560 C   0  0  0  0  0  0  0  0  0  0  0  0
   -1.8070   -1.0310   -1.0200 C   0  0  0  0  0  0  0  0  0  0  0  0
   -3.0360   -1.6820   -1.0980 C   0  0  0  0  0  0  0  0  0  0  0  0
   -4.1490   -1.1730   -0.4180 C   0  0  0  0  0  0  0  0  0  0  0  0
   -5.4550   -1.9270   -0.4580 C   0  0  2  0  0  0  0  0  0  0  0  0
   -6.4740   -1.1660   -1.3070 C   0  0  0  0  0  0  0  0  0  0  0  0
   -5.9890   -2.2480    0.8630 N   0  0  0  0  0  0  0  0  0  0  0  0
   -4.0100   -0.0050    0.3390 C   0  0  0  0  0  0  0  0  0  0  0  0
   -2.7740    0.6320    0.4270 C   0  0  0  0  0  0  0  0  0  0  0  0
   -0.2650    2.2150   -0.2380 C   0  0  0  0  0  0  0  0  0  0  0  0
    2.7150    4.7250   -1.0490 H   0  0  0  0  0  0  0  0  0  0  0  0
    1.8230    6.0380   -0.2700 H   0  0  0  0  0  0  0  0  0  0  0  0
    2.6040    4.8270    0.7520 H   0  0  0  0  0  0  0  0  0  0  0  0
    3.0860    2.6410    0.0920 H   0  0  0  0  0  0  0  0  0  0  0  0
    4.4780    1.0700   -1.2310 H   0  0  0  0  0  0  0  0  0  0  0  0
    6.5400   -0.2260   -0.9550 H   0  0  0  0  0  0  0  0  0  0  0  0
    4.5670   -2.7200    1.9660 H   0  0  0  0  0  0  0  0  0  0  0  0
    2.5270   -1.4180    1.7150 H   0  0  0  0  0  0  0  0  0  0  0  0
    0.7970   -0.9890    0.0490 H   0  0  0  0  0  0  0  0  0  0  0  0
   -0.9640   -1.4550   -1.5620 H   0  0  0  0  0  0  0  0  0  0  0  0
   -3.1110   -2.6050   -1.6670 H   0  0  0  0  0  0  0  0  0  0  0  0
   -5.2900   -2.9020   -0.9360 H   0  0  0  0  0  0  0  0  0  0  0  0
   -6.7070   -0.1830   -0.8830 H   0  0  0  0  0  0  0  0  0  0  0  0
   -6.0900   -1.0110   -2.3220 H   0  0  0  0  0  0  0  0  0  0  0  0
   -7.4140   -1.7230   -1.3860 H   0  0  0  0  0  0  0  0  0  0  0  0
   -6.9590   -2.5080    0.8340 H   0  0  0  0  0  0  0  0  0  0  0  0
   -4.8500    0.3790    0.9130 H   0  0  0  0  0  0  0  0  0  0  0  0
   -2.6890    1.5080    1.0670 H   0  0  0  0  0  0  0  0  0  0  0  0
   -1.1680    2.8090   -0.3700 H   0  0  0  0  0  0  0  0  0  0  0  0
   -4.3790  -11.6000    3.5490 C   0  0  0  0  0  0  0  0  0  0  0  0
   -5.7140  -11.6830    4.0280 O   0  0  0  0  0  0  0  0  0  0  0  0
   -6.4520  -10.5330    4.0130 C   0  0  0  0  0  0  0  0  0  0  0  0
   -6.0300   -9.2850    3.5560 C   0  0  0  0  0  0  0  0  0  0  0  0
   -6.8890   -8.1740    3.5970 C   0  0  0  0  0  0  0  0  0  0  0  0
   -6.4650   -6.8460    3.1260 C   0  0  0  0  0  0  0  0  0  0  0  0
   -5.2000   -6.3300    3.4390 C   0  0  0  0  0  0  0  0  0  0  0  0
   -4.8210   -5.0600    3.0010 C   0  0  0  0  0  0  0  0  0  0  0  0
   -5.6990   -4.2700    2.2460 C   0  0  0  0  0  0  0  0  0  0  0  0
   -5.1800   -2.9740    1.7290 C   0  0  0  0  0  0  0  0  0  0  0  0
   -4.0400   -2.6410    2.0350 O   0  0  0  0  0  0  0  0  0  0  0  0
   -6.9610   -4.7740    1.9280 C   0  0  0  0  0  0  0  0  0  0  0  0
   -7.3320   -6.0470    2.3620 C   0  0  0  0  0  0  0  0  0  0  0  0
   -8.1850   -8.3560    4.1060 C   0  0  0  0  0  0  0  0  0  0  0  0
   -8.6360   -9.5970    4.5700 C   0  0  0  0  0  0  0  0  0  0  0  0
   -9.9960   -9.7560    5.1040 C   0  0  0  0  0  0  0  0  0  0  0  0
  -10.5590   -8.7880    5.9510 C   0  0  0  0  0  0  0  0  0  0  0  0
  -11.8480   -8.9370    6.4550 C   0  0  0  0  0  0  0  0  0  0  0  0
  -12.6050  -10.0680    6.1310 C   0  0  0  0  0  0  0  0  0  0  0  0
  -14.0200  -10.1860    6.6390 C   0  0  2  0  0  0  0  0  0  0  0  0
  -14.1060  -11.2730    7.7110 C   0  0  0  0  0  0  0  0  0  0  0  0
  -15.0060  -10.3970    5.5840 N   0  0  0  0  0  0  0  0  0  0  0  0
  -12.0540  -11.0400    5.2880 C   0  0  0  0  0  0  0  0  0  0  0  0
  -10.7710  -10.8780    4.7730 C   0  0  0  0  0  0  0  0  0  0  0  0
   -7.7460  -10.6770    4.5140 C   0  0  0  0  0  0  0  0  0  0  0  0
   -3.7860  -10.9050    4.1520 H   0  0  0  0  0  0  0  0  0  0  0  0
   -3.9310  -12.5930    3.6460 H   0  0  0  0  0  0  0  0  0  0  0  0
   -4.3580  -11.3260    2.4890 H   0  0  0  0  0  0  0  0  0  0  0  0
   -5.0330   -9.1560    3.1470 H   0  0  0  0  0  0  0  0  0  0  0  0
   -4.4950   -6.9070    4.0320 H   0  0  0  0  0  0  0  0  0  0  0  0
   -3.8210   -4.6980    3.2400 H   0  0  0  0  0  0  0  0  0  0  0  0
   -7.6790   -4.2270    1.3300 H   0  0  0  0  0  0  0  0  0  0  0  0
   -8.3150   -6.4200    2.0790 H   0  0  0  0  0  0  0  0  0  0  0  0
   -8.8650   -7.5050    4.1420 H   0  0  0  0  0  0  0  0  0  0  0  0
   -9.9990   -7.8960    6.2230 H   0  0  0  0  0  0  0  0  0  0  0  0
  -12.2650   -8.1510    7.0800 H   0  0  0  0  0  0  0  0  0  0  0  0
  -14.3110   -9.2360    7.1080 H   0  0  0  0  0  0  0  0  0  0  0  0
  -13.8480  -12.2600    7.3150 H   0  0  0  0  0  0  0  0  0  0  0  0
  -13.4220  -11.0540    8.5390 H   0  0  0  0  0  0  0  0  0  0  0  0
  -15.1200  -11.3360    8.1230 H   0  0  0  0  0  0  0  0  0  0  0  0
  -15.8850  -10.7270    5.9410 H   0  0  0  0  0  0  0  0  0  0  0  0
  -12.6470  -11.8990    4.9820 H   0  0  0  0  0  0  0  0  0  0  0  0
  -10.3930  -11.6260    4.0790 H   0  0  0  0  0  0  0  0  0  0  0  0
   -8.0550  -11.6550    4.8770 H   0  0  0  0  0  0  0  0  0  0  0  0
  -19.9540   -2.2240    3.2080 C   0  0  0  0  0  0  0  0  0  0  0  0
  -21.1620   -2.9700    3.1870 O   0  0  0  0  0  0  0  0  0  0  0  0
  -21.0610   -4.3240    3.3370 C   0  0  0  0  0  0  0  0  0  0  0  0
  -19.8870   -5.0450    3.5510 C   0  0  0  0  0  0  0  0  0  0  0  0
  -19.9160   -6.4470    3.6900 C   0  0  0  0  0  0  0  0  0  0  0  0
  -18.6900   -7.2240    3.9100 C   0  0  0  0  0  0  0  0  0  0  0  0
  -17.5240   -6.9700    3.1760 C   0  0  0  0  0  0  0  0  0  0  0  0
  -16.3730   -7.7300    3.3830 C   0  0  0  0  0  0  0  0  0  0  0  0
  -16.3630   -8.7700    4.3230 C   0  0  0  0  0  0  0  0  0  0  0  0
  -15.0660   -9.4630    4.5580 C   0  0  0  0  0  0  0  0  0  0  0  0
  -14.0980   -9.1300    3.8820 O   0  0  0  0  0  0  0  0  0  0  0  0
  -17.5170   -9.0310    5.0620 C   0  0  0  0  0  0  0  0  0  0  0  0
  -18.6630   -8.2630    4.8550 C   0  0  0  0  0  0  0  0  0  0  0  0
  -21.1560   -7.0950    3.6090 C   0  0  0  0  0  0  0  0  0  0  0  0
  -22.3500   -6.3950    3.4040 C   0  0  0  0  0  0  0  0  0  0  0  0
  -23.6370   -7.1040    3.3230 C   0  0  0  0  0  0  0  0  0  0  0  0
  -23.7610   -8.3200    2.6310 C   0  0  0  0  0  0  0  0  0  0  0  0
  -24.9790   -8.9930    2.5730 C   0  0  0  0  0  0  0  0  0  0  0  0
  -26.1100   -8.4610    3.2020 C   0  0  0  0  0  0  0  0  0  0  0  0
  -27.4080   -9.2290    3.1800 C   0  0  2  0  0  0  0  0  0  0  0  0
  -28.4250   -8.5180    2.2870 C   0  0  0  0  0  0  0  0  0  0  0  0
  -27.9600   -9.4900    4.5060 N   0  0  0  0  0  0  0  0  0  0  0  0
  -26.0000   -7.2480    3.8910 C   0  0  0  0  0  0  0  0  0  0  0  0
  -24.7760   -6.5860    3.9580 C   0  0  0  0  0  0  0  0  0  0  0  0
  -22.2770   -5.0050    3.2570 C   0  0  0  0  0  0  0  0  0  0  0  0
  -19.2900   -2.5250    2.3890 H   0  0  0  0  0  0  0  0  0  0  0  0
  -20.2110   -1.1710    3.0610 H   0  0  0  0  0  0  0  0  0  0  0  0
  -19.4520   -2.3140    4.1760 H   0  0  0  0  0  0  0  0  0  0  0  0
  -18.9330   -4.5350    3.6300 H   0  0  0  0  0  0  0  0  0  0  0  0
  -17.4980   -6.1800    2.4280 H   0  0  0  0  0  0  0  0  0  0  0  0
  -15.4750   -7.4920    2.8160 H   0  0  0  0  0  0  0  0  0  0  0  0
  -17.5700   -9.8030    5.8200 H   0  0  0  0  0  0  0  0  0  0  0  0
  -19.5430   -8.4780    5.4590 H   0  0  0  0  0  0  0  0  0  0  0  0
  -21.1940   -8.1760    3.7190 H   0  0  0  0  0  0  0  0  0  0  0  0
  -22.9030   -8.7650    2.1320 H   0  0  0  0  0  0  0  0  0  0  0  0
  -25.0310   -9.9510    2.0590 H   0  0  0  0  0  0  0  0  0  0  0  0
  -27.2270  -10.2240    2.7500 H   0  0  0  0  0  0  0  0  0  0  0  0
  -28.6880   -7.5280    2.6760 H   0  0  0  0  0  0  0  0  0  0  0  0
  -28.0270   -8.3860    1.2740 H   0  0  0  0  0  0  0  0  0  0  0  0
  -29.3510   -9.0980    2.2110 H   0  0  0  0  0  0  0  0  0  0  0  0
  -28.9250   -9.7660    4.4710 H   0  0  0  0  0  0  0  0  0  0  0  0
  -26.8550   -6.8440    4.4280 H   0  0  0  0  0  0  0  0  0  0  0  0
  -24.7150   -5.6750    4.5470 H   0  0  0  0  0  0  0  0  0  0  0  0
  -23.1820   -4.4280    3.0790 H   0  0  0  0  0  0  0  0  0  0  0  0
  -26.2990  -18.6340    7.7480 C   0  0  0  0  0  0  0  0  0  0  0  0
  -27.6480  -18.7150    8.1850 O   0  0  0  0  0  0  0  0  0  0  0  0
  -28.3990  -17.5770    8.1090 C   0  0  0  0  0  0  0  0  0  0  0  0
  -27.9880  -16.3510    7.5810 C   0  0  0  0  0  0  0  0  0  0  0  0
  -28.8560  -15.2470    7.5640 C   0  0  0  0  0  0  0  0  0  0  0  0
  -28.4390  -13.9490    7.0280 C   0  0  0  0  0  0  0  0  0  0  0  0
  -27.1880  -13.3970    7.3360 C   0  0  0  0  0  0  0  0  0  0  0  0
  -26.8100  -12.1530    6.8330 C   0  0  0  0  0  0  0  0  0  0  0  0
  -27.6760  -11.4210    6.0110 C   0  0  0  0  0  0  0  0  0  0  0  0
  -27.1600  -10.1510    5.4290 C   0  0  0  0  0  0  0  0  0  0  0  0
  -26.0330   -9.7840    5.7430 O   0  0  0  0  0  0  0  0  0  0  0  0
  -28.9250  -11.9600    5.6890 C   0  0  0  0  0  0  0  0  0  0  0  0
  -29.2950  -13.2060    6.1940 C   0  0  0  0  0  0  0  0  0  0  0  0
  -30.1520  -15.4120    8.0810 C   0  0  0  0  0  0  0  0  0  0  0  0
  -30.5920  -16.6360    8.6220 C   0  0  0  0  0  0  0  0  0  0  0  0
  -31.9500  -16.7800    9.1530 C   0  0  0  0  0  0  0  0  0  0  0  0
  -32.5240  -15.7780    9.9510 C   0  0  0  0  0  0  0  0  0  0  0  0
  -33.8230  -15.9050   10.4390 C   0  0  0  0  0  0  0  0  0  0  0  0
  -34.5780  -17.0460   10.1450 C   0  0  0  0  0  0  0  0  0  0  0  0
  -36.0230  -17.1130   10.5860 C   0  0  2  0  0  0  0  0  0  0  0  0
  -36.1560  -18.1590   11.6960 C   0  0  0  0  0  0  0  0  0  0  0  0
  -36.9590  -17.3490    9.4890 N   0  0  0  0  0  0  0  0  0  0  0  0
  -34.0080  -18.0630    9.3680 C   0  0  0  0  0  0  0  0  0  0  0  0
  -32.7150  -17.9230    8.8690 C   0  0  0  0  0  0  0  0  0  0  0  0
  -29.6910  -17.7030    8.6140 C   0  0  0  0  0  0  0  0  0  0  0  0
  -25.7370  -17.8990    8.3330 H   0  0  0  0  0  0  0  0  0  0  0  0
  -25.8390  -19.6130    7.9120 H   0  0  0  0  0  0  0  0  0  0  0  0
  -26.2450  -18.4150    6.6770 H   0  0  0  0  0  0  0  0  0  0  0  0
  -26.9940  -16.2360    7.1620 H   0  0  0  0  0  0  0  0  0  0  0  0
  -26.4910  -13.9300    7.9830 H   0  0  0  0  0  0  0  0  0  0  0  0
  -25.8200  -11.7640    7.0740 H   0  0  0  0  0  0  0  0  0  0  0  0
  -29.6320  -11.4580    5.0420 H   0  0  0  0  0  0  0  0  0  0  0  0
  -30.2670  -13.6070    5.9140 H   0  0  0  0  0  0  0  0  0  0  0  0
  -30.8380  -14.5650    8.0700 H   0  0  0  0  0  0  0  0  0  0  0  0
  -31.9740  -14.8680   10.1810 H   0  0  0  0  0  0  0  0  0  0  0  0
  -34.2560  -15.0860   11.0090 H   0  0  0  0  0  0  0  0  0  0  0  0
  -36.3180  -16.1420   11.0050 H   0  0  0  0  0  0  0  0  0  0  0  0
  -35.8940  -19.1640   11.3470 H   0  0  0  0  0  0  0  0  0  0  0  0
  -35.4880  -17.9170   12.5320 H   0  0  0  0  0  0  0  0  0  0  0  0
  -37.1780  -18.1980   12.0840 H   0  0  0  0  0  0  0  0  0  0  0  0
  -37.8860  -17.6450    9.7620 H   0  0  0  0  0  0  0  0  0  0  0  0
  -34.5910  -18.9400    9.0980 H   0  0  0  0  0  0  0  0  0  0  0  0
  -32.3220  -18.7030    8.2210 H   0  0  0  0  0  0  0  0  0  0  0  0
  -29.9880  -18.6640    9.0330 H   0  0  0  0  0  0  0  0  0  0  0  0
    7.1660   -4.6840    0.7730 C   0  0  0  0  0  0  0  0  0  0  0  0
    6.7130   -3.4670    1.3580 O   0  0  0  0  0  0  0  0  0  0  0  0
    6.4240   -4.9860    0.0260 H   0  0  0  0  0  0  0  0  0  0  0  0
    7.1980   -5.4490    1.5520 H   0  0  0  0  0  0  0  0  0  0  0  0
    8.1530   -4.5970    0.3110 H   0  0  0  0  0  0  0  0  0  0  0  0
  -34.1870  -14.8370    6.7830 C   0  0  0  0  0  0  0  0  0  0  0  0
  -35.7030  -15.0470    6.9400 C   0  0  0  0  0  0  0  0  0  0  0  0
  -36.3320  -13.7240    7.3750 C   0  0  0  0  0  0  0  0  0  0  0  0
  -36.2530  -15.5510    5.6050 C   0  0  0  0  0  0  0  0  0  0  0  0
  -35.8570  -16.0190    8.0020 O   0  0  0  0  0  0  0  0  0  0  0  0
  -37.0480  -16.5250    8.3890 C   0  0  0  0  0  0  0  0  0  0  0  0
  -38.1240  -16.3130    7.8490 O   0  0  0  0  0  0  0  0  0  0  0  0
  -33.9560  -14.1070    5.9980 H   0  0  0  0  0  0  0  0  0  0  0  0
  -33.7420  -14.4740    7.7140 H   0  0  0  0  0  0  0  0  0  0  0  0
  -33.6800  -15.7770    6.5370 H   0  0  0  0  0  0  0  0  0  0  0  0
  -35.9560  -13.4280    8.3610 H   0  0  0  0  0  0  0  0  0  0  0  0
  -37.4190  -13.8080    7.4680 H   0  0  0  0  0  0  0  0  0  0  0  0
  -36.1100  -12.9220    6.6640 H   0  0  0  0  0  0  0  0  0  0  0  0
  -35.8430  -16.5380    5.3620 H   0  0  0  0  0  0  0  0  0  0  0  0
  -37.3410  -15.6520    5.6210 H   0  0  0  0  0  0  0  0  0  0  0  0
  -36.0000  -14.8620    4.7910 H   0  0  0  0  0  0  0  0  0  0  0  0
  1 28  1  0  0  0  0
  2  1  1  0  0  0  0
  2  3  1  0  0  0  0
  3  4  1  0  0  0  0
  4  5  2  0  0  0  0
  4 29  1  0  0  0  0
  5  6  1  0  0  0  0
  6 13  1  0  0  0  0
  7  8  1  0  0  0  0
  7  6  2  0  0  0  0
  8  9  2  0  0  0  0
  9 10  1  0  0  0  0
  9 12  1  0  0  0  0
 10178  1  0  0  0  0
 11 10  2  0  0  0  0
 12 32  1  0  0  0  0
 13 12  2  0  0  0  0
 13 33  1  0  0  0  0
 14 34  1  0  0  0  0
 14  5  1  0  0  0  0
 15 14  2  0  0  0  0
 16 15  1  0  0  0  0
 16 24  1  0  0  0  0
 17 16  2  0  0  0  0
 18 17  1  0  0  0  0
 18 19  2  0  0  0  0
 19 23  1  0  0  0  0
 20 37  1  6  0  0  0
 20 19  1  0  0  0  0
 20 22  1  0  0  0  0
 21 38  1  0  0  0  0
 21 20  1  0  0  0  0
 22 54  1  0  0  0  0
 23 24  2  0  0  0  0
 23 42  1  0  0  0  0
 24 43  1  0  0  0  0
 25 15  1  0  0  0  0
 25  3  2  0  0  0  0
 26  1  1  0  0  0  0
 27  1  1  0  0  0  0
 30  7  1  0  0  0  0
 31  8  1  0  0  0  0
 35 17  1  0  0  0  0
 36 18  1  0  0  0  0
 39 21  1  0  0  0  0
 40 21  1  0  0  0  0
 41 22  1  0  0  0  0
 44 25  1  0  0  0  0
 45 71  1  0  0  0  0
 45 46  1  0  0  0  0
 45 70  1  0  0  0  0
 47 46  1  0  0  0  0
 47 69  1  0  0  0  0
 48 49  1  0  0  0  0
 48 47  2  0  0  0  0
 49 58  2  0  0  0  0
 50 51  1  0  0  0  0
 50 49  1  0  0  0  0
 51 74  1  0  0  0  0
 52 75  1  0  0  0  0
 52 51  2  0  0  0  0
 53 52  1  0  0  0  0
 54 55  2  0  0  0  0
 54 53  1  0  0  0  0
 56 53  2  0  0  0  0
 56 57  1  0  0  0  0
 57 50  2  0  0  0  0
 58 78  1  0  0  0  0
 58 59  1  0  0  0  0
 59 60  1  0  0  0  0
 60 61  1  0  0  0  0
 61 79  1  0  0  0  0
 61 62  2  0  0  0  0
 62 80  1  0  0  0  0
 63 62  1  0  0  0  0
 63 64  1  0  0  0  0
 64 81  1  1  0  0  0
 64 65  1  0  0  0  0
 65 84  1  0  0  0  0
 65 83  1  0  0  0  0
 66 85  1  0  0  0  0
 66 64  1  0  0  0  0
 67 63  2  0  0  0  0
 68 60  2  0  0  0  0
 68 67  1  0  0  0  0
 69 59  2  0  0  0  0
 69 88  1  0  0  0  0
 72 45  1  0  0  0  0
 73 48  1  0  0  0  0
 76 56  1  0  0  0  0
 77 57  1  0  0  0  0
 82 65  1  0  0  0  0
 86 67  1  0  0  0  0
 87 68  1  0  0  0  0
 89116  1  0  0  0  0
 90 89  1  0  0  0  0
 90 91  1  0  0  0  0
 91 92  1  0  0  0  0
 92117  1  0  0  0  0
 92 93  2  0  0  0  0
 93 94  1  0  0  0  0
 94101  1  0  0  0  0
 95 96  1  0  0  0  0
 95 94  2  0  0  0  0
 96 97  2  0  0  0  0
 97 98  1  0  0  0  0
 97100  1  0  0  0  0
 98 66  1  0  0  0  0
 99 98  2  0  0  0  0
100120  1  0  0  0  0
101100  2  0  0  0  0
101121  1  0  0  0  0
102 93  1  0  0  0  0
102122  1  0  0  0  0
103102  2  0  0  0  0
104103  1  0  0  0  0
104112  1  0  0  0  0
105104  2  0  0  0  0
106105  1  0  0  0  0
106107  2  0  0  0  0
107111  1  0  0  0  0
108125  1  6  0  0  0
108107  1  0  0  0  0
108110  1  0  0  0  0
109126  1  0  0  0  0
109108  1  0  0  0  0
110142  1  0  0  0  0
111112  2  0  0  0  0
111130  1  0  0  0  0
112131  1  0  0  0  0
113 91  2  0  0  0  0
113103  1  0  0  0  0
114 89  1  0  0  0  0
115 89  1  0  0  0  0
118 95  1  0  0  0  0
119 96  1  0  0  0  0
123105  1  0  0  0  0
124106  1  0  0  0  0
127109  1  0  0  0  0
128109  1  0  0  0  0
129110  1  0  0  0  0
132113  1  0  0  0  0
133159  1  0  0  0  0
133134  1  0  0  0  0
133158  1  0  0  0  0
135134  1  0  0  0  0
135157  1  0  0  0  0
136135  2  0  0  0  0
137136  1  0  0  0  0
137146  2  0  0  0  0
138139  1  0  0  0  0
138137  1  0  0  0  0
139162  1  0  0  0  0
140163  1  0  0  0  0
140139  2  0  0  0  0
141140  1  0  0  0  0
142143  2  0  0  0  0
142141  1  0  0  0  0
144141  2  0  0  0  0
144145  1  0  0  0  0
145138  2  0  0  0  0
146147  1  0  0  0  0
147148  1  0  0  0  0
148149  1  0  0  0  0
149167  1  0  0  0  0
149150  2  0  0  0  0
150168  1  0  0  0  0
151150  1  0  0  0  0
151152  1  0  0  0  0
152169  1  1  0  0  0
152153  1  0  0  0  0
153172  1  0  0  0  0
153171  1  0  0  0  0
154173  1  0  0  0  0
154152  1  0  0  0  0
155151  2  0  0  0  0
156148  2  0  0  0  0
156155  1  0  0  0  0
157147  2  0  0  0  0
157176  1  0  0  0  0
160133  1  0  0  0  0
161136  1  0  0  0  0
164144  1  0  0  0  0
165145  1  0  0  0  0
166146  1  0  0  0  0
170153  1  0  0  0  0
174155  1  0  0  0  0
175156  1  0  0  0  0
177178  1  0  0  0  0
177180  1  0  0  0  0
179177  1  0  0  0  0
181177  1  0  0  0  0
182183  1  0  0  0  0
182190  1  0  0  0  0
183184  1  0  0  0  0
183186  1  0  0  0  0
184193  1  0  0  0  0
184192  1  0  0  0  0
185196  1  0  0  0  0
185183  1  0  0  0  0
186187  1  0  0  0  0
187154  1  0  0  0  0
188187  2  0  0  0  0
189182  1  0  0  0  0
191182  1  0  0  0  0
194184  1  0  0  0  0
195185  1  0  0  0  0
197185  1  0  0  0  0
M  END
