pmp_tetramer.pdb
 OpenBabel09092515203D

197208  0  0  1  0  0  0  0  0999 V2000
    2.0930    4.9910   -0.1870 C   0  0  0  0  0  0  0  0  0  0  0  0
    0.8760    4.2640   -0.2390 O   0  0  0  0  0  0  0  0  0  0  0  0
    0.9630    2.9010   -0.1530 C   0  0  0  0  0  0  0  0  0  0  0  0
    2.1310    2.1620    0.0210 C   0  0  0  0  0  0  0  0  0  0  0  0
    2.0960    0.7570    0.0940 C   0  0  0  0  0  0  0  0  0  0  0  0
    3.3330   -0.0250    0.2660 C   0  0  0  0  0  0  0  0  0  0  0  0
    4.4880    0.2680   -0.4810 C   0  0  0  0  0  0  0  0  0  0  0  0
    5.6590   -0.4800   -0.3300 C   0  0  0  0  0  0  0  0  0  0  0  0
    5.6930   -1.5500    0.5670 C   0  0  0  0  0  0  0  0  0  0  0  0
    6.9000   -2.4150    0.5840 C   0  0  0  0  0  0  0  0  0  0  0  0
    7.8930   -2.2180   -0.0970 O   0  0  0  0  0  0  0  0  0  0  0  0
    4.5550   -1.8520    1.3240 C   0  0  0  0  0  0  0  0  0  0  0  0
    3.3910   -1.0970    1.1720 C   0  0  0  0  0  0  0  0  0  0  0  0
    0.8450    0.1220   -0.0010 C   0  0  0  0  0  0  0  0  0  0  0  0
   -0.3470    0.8420   -0.1700 C   0  0  0  0  0  0  0  0  0  0  0  0
   -1.6470    0.1610   -0.2670 C   0  0  0  0  0  0  0  0  0  0  0  0
   -1.7990   -1.0060   -1.0320 C   0  0  0  0  0  0  0  0  0  0  0  0
   -3.0290   -1.6580   -1.1130 C   0  0  0  0  0  0  0  0  0  0  0  0
   -4.1450   -1.1540   -0.4340 C   0  0  0  0  0  0  0  0  0  0  0  0
   -5.4490   -1.9150   -0.4760 C   0  0  2  0  0  0  0  0  0  0  0  0
   -6.4850   -1.1550   -1.3030 C   0  0  0  0  0  0  0  0  0  0  0  0
   -5.9800   -2.2580    0.8410 N   0  0  0  0  0  0  0  0  0  0  0  0
   -4.0090    0.0150    0.3230 C   0  0  0  0  0  0  0  0  0  0  0  0
   -2.7740    0.6560    0.4120 C   0  0  0  0  0  0  0  0  0  0  0  0
   -0.2590    2.2390   -0.2480 C   0  0  0  0  0  0  0  0  0  0  0  0
    2.7480    4.7230   -1.0220 H   0  0  0  0  0  0  0  0  0  0  0  0
    1.8490    6.0540   -0.2820 H   0  0  0  0  0  0  0  0  0  0  0  0
    2.5980    4.8500    0.7750 H   0  0  0  0  0  0  0  0  0  0  0  0
    3.0890    2.6600    0.1200 H   0  0  0  0  0  0  0  0  0  0  0  0
    4.4770    1.0710   -1.2160 H   0  0  0  0  0  0  0  0  0  0  0  0
    6.5280   -0.2450   -0.9420 H   0  0  0  0  0  0  0  0  0  0  0  0
    4.5460   -2.6890    2.0180 H   0  0  0  0  0  0  0  0  0  0  0  0
    2.5200   -1.3640    1.7690 H   0  0  0  0  0  0  0  0  0  0  0  0
    0.7970   -0.9660    0.0640 H   0  0  0  0  0  0  0  0  0  0  0  0
   -0.9540   -1.4280   -1.5690 H   0  0  0  0  0  0  0  0  0  0  0  0
   -3.0990   -2.5790   -1.6860 H   0  0  0  0  0  0  0  0  0  0  0  0
   -5.2780   -2.8820   -0.9680 H   0  0  0  0  0  0  0  0  0  0  0  0
   -6.7330   -0.1860   -0.8560 H   0  0  0  0  0  0  0  0  0  0  0  0
   -6.1150   -0.9730   -2.3190 H   0  0  0  0  0  0  0  0  0  0  0  0
   -7.4150   -1.7280   -1.3830 H   0  0  0  0  0  0  0  0  0  0  0  0
   -6.9510   -2.5160    0.8120 H   0  0  0  0  0  0  0  0  0  0  0  0
   -4.8510    0.3990    0.8940 H   0  0  0  0  0  0  0  0  0  0  0  0
   -2.6930    1.5330    1.0490 H   0  0  0  0  0  0  0  0  0  0  0  0
   -1.1600    2.8320   -0.3960 H   0  0  0  0  0  0  0  0  0  0  0  0
   -4.3730  -11.5890    3.5170 C   0  0  0  0  0  0  0  0  0  0  0  0
   -5.6970  -11.6780    4.0220 O   0  0  0  0  0  0  0  0  0  0  0  0
   -6.4410  -10.5300    4.0140 C   0  0  0  0  0  0  0  0  0  0  0  0
   -6.0270   -9.2820    3.5520 C   0  0  0  0  0  0  0  0  0  0  0  0
   -6.8900   -8.1740    3.6000 C   0  0  0  0  0  0  0  0  0  0  0  0
   -6.4720   -6.8430    3.1300 C   0  0  0  0  0  0  0  0  0  0  0  0
   -5.2170   -6.3170    3.4590 C   0  0  0  0  0  0  0  0  0  0  0  0
   -4.8380   -5.0490    3.0180 C   0  0  0  0  0  0  0  0  0  0  0  0
   -5.7070   -4.2700    2.2400 C   0  0  0  0  0  0  0  0  0  0  0  0
   -5.1730   -2.9870    1.7050 C   0  0  0  0  0  0  0  0  0  0  0  0
   -4.0250   -2.6680    1.9930 O   0  0  0  0  0  0  0  0  0  0  0  0
   -6.9650   -4.7800    1.9130 C   0  0  0  0  0  0  0  0  0  0  0  0
   -7.3360   -6.0530    2.3520 C   0  0  0  0  0  0  0  0  0  0  0  0
   -8.1810   -8.3600    4.1180 C   0  0  0  0  0  0  0  0  0  0  0  0
   -8.6220   -9.6030    4.5880 C   0  0  0  0  0  0  0  0  0  0  0  0
   -9.9810   -9.7660    5.1260 C   0  0  0  0  0  0  0  0  0  0  0  0
  -10.5440   -8.7990    5.9740 C   0  0  0  0  0  0  0  0  0  0  0  0
  -11.8360   -8.9470    6.4740 C   0  0  0  0  0  0  0  0  0  0  0  0
  -12.5960  -10.0740    6.1420 C   0  0  0  0  0  0  0  0  0  0  0  0
  -14.0150  -10.1890    6.6430 C   0  0  2  0  0  0  0  0  0  0  0  0
  -14.1130  -11.2890    7.7000 C   0  0  0  0  0  0  0  0  0  0  0  0
  -15.0030  -10.3850    5.5860 N   0  0  0  0  0  0  0  0  0  0  0  0
  -12.0430  -11.0470    5.3000 C   0  0  0  0  0  0  0  0  0  0  0  0
  -10.7570  -10.8870    4.7920 C   0  0  0  0  0  0  0  0  0  0  0  0
   -7.7300  -10.6790    4.5300 C   0  0  0  0  0  0  0  0  0  0  0  0
   -3.7700  -10.8980    4.1160 H   0  0  0  0  0  0  0  0  0  0  0  0
   -3.9200  -12.5820    3.5950 H   0  0  0  0  0  0  0  0  0  0  0  0
   -4.3720  -11.3030    2.4600 H   0  0  0  0  0  0  0  0  0  0  0  0
   -5.0340   -9.1480    3.1350 H   0  0  0  0  0  0  0  0  0  0  0  0
   -4.5180   -6.8860    4.0680 H   0  0  0  0  0  0  0  0  0  0  0  0
   -3.8450   -4.6790    3.2690 H   0  0  0  0  0  0  0  0  0  0  0  0
   -7.6780   -4.2400    1.3020 H   0  0  0  0  0  0  0  0  0  0  0  0
   -8.3150   -6.4340    2.0610 H   0  0  0  0  0  0  0  0  0  0  0  0
   -8.8640   -7.5110    4.1550 H   0  0  0  0  0  0  0  0  0  0  0  0
   -9.9830   -7.9090    6.2500 H   0  0  0  0  0  0  0  0  0  0  0  0
  -12.2520   -8.1620    7.1000 H   0  0  0  0  0  0  0  0  0  0  0  0
  -14.3000   -9.2430    7.1220 H   0  0  0  0  0  0  0  0  0  0  0  0
  -13.8700  -12.2740    7.2870 H   0  0  0  0  0  0  0  0  0  0  0  0
  -13.4250  -11.0930    8.5300 H   0  0  0  0  0  0  0  0  0  0  0  0
  -15.1270  -11.3460    8.1110 H   0  0  0  0  0  0  0  0  0  0  0  0
  -15.8830  -10.7200    5.9370 H   0  0  0  0  0  0  0  0  0  0  0  0
  -12.6350  -11.9050    4.9930 H   0  0  0  0  0  0  0  0  0  0  0  0
  -10.3760  -11.6340    4.1000 H   0  0  0  0  0  0  0  0  0  0  0  0
   -8.0310  -11.6560    4.8990 H   0  0  0  0  0  0  0  0  0  0  0  0
  -19.9390   -2.2110    3.1860 C   0  0  0  0  0  0  0  0  0  0  0  0
  -21.1490   -2.9540    3.1510 O   0  0  0  0  0  0  0  0  0  0  0  0
  -21.0500   -4.3090    3.3090 C   0  0  0  0  0  0  0  0  0  0  0  0
  -19.8780   -5.0320    3.5300 C   0  0  0  0  0  0  0  0  0  0  0  0
  -19.9110   -6.4290    3.6730 C   0  0  0  0  0  0  0  0  0  0  0  0
  -18.6880   -7.2170    3.8930 C   0  0  0  0  0  0  0  0  0  0  0  0
  -17.5260   -6.9780    3.1510 C   0  0  0  0  0  0  0  0  0  0  0  0
  -16.3770   -7.7420    3.3590 C   0  0  0  0  0  0  0  0  0  0  0  0
  -16.3650   -8.7700    4.3130 C   0  0  0  0  0  0  0  0  0  0  0  0
  -15.0610   -9.4480    4.5630 C   0  0  0  0  0  0  0  0  0  0  0  0
  -14.0870   -9.0980    3.9040 O   0  0  0  0  0  0  0  0  0  0  0  0
  -17.5190   -9.0250    5.0520 C   0  0  0  0  0  0  0  0  0  0  0  0
  -18.6630   -8.2520    4.8440 C   0  0  0  0  0  0  0  0  0  0  0  0
  -21.1540   -7.0750    3.6000 C   0  0  0  0  0  0  0  0  0  0  0  0
  -22.3470   -6.3740    3.3810 C   0  0  0  0  0  0  0  0  0  0  0  0
  -23.6330   -7.0810    3.3070 C   0  0  0  0  0  0  0  0  0  0  0  0
  -23.7500   -8.2990    2.6190 C   0  0  0  0  0  0  0  0  0  0  0  0
  -24.9650   -8.9780    2.5620 C   0  0  0  0  0  0  0  0  0  0  0  0
  -26.1000   -8.4510    3.1890 C   0  0  0  0  0  0  0  0  0  0  0  0
  -27.3910   -9.2310    3.1640 C   0  0  2  0  0  0  0  0  0  0  0  0
  -28.4200   -8.5250    2.2800 C   0  0  0  0  0  0  0  0  0  0  0  0
  -27.9380   -9.5160    4.4840 N   0  0  0  0  0  0  0  0  0  0  0  0
  -25.9970   -7.2360    3.8740 C   0  0  0  0  0  0  0  0  0  0  0  0
  -24.7760   -6.5660    3.9400 C   0  0  0  0  0  0  0  0  0  0  0  0
  -22.2690   -4.9830    3.2350 C   0  0  0  0  0  0  0  0  0  0  0  0
  -19.2670   -2.5130    2.3760 H   0  0  0  0  0  0  0  0  0  0  0  0
  -20.1930   -1.1570    3.0350 H   0  0  0  0  0  0  0  0  0  0  0  0
  -19.4500   -2.2990    4.1620 H   0  0  0  0  0  0  0  0  0  0  0  0
  -18.9220   -4.5240    3.6070 H   0  0  0  0  0  0  0  0  0  0  0  0
  -17.4990   -6.1950    2.3960 H   0  0  0  0  0  0  0  0  0  0  0  0
  -15.4800   -7.5140    2.7840 H   0  0  0  0  0  0  0  0  0  0  0  0
  -17.5730   -9.7910    5.8150 H   0  0  0  0  0  0  0  0  0  0  0  0
  -19.5430   -8.4590    5.4520 H   0  0  0  0  0  0  0  0  0  0  0  0
  -21.1960   -8.1580    3.7170 H   0  0  0  0  0  0  0  0  0  0  0  0
  -22.8890   -8.7400    2.1220 H   0  0  0  0  0  0  0  0  0  0  0  0
  -25.0090   -9.9360    2.0490 H   0  0  0  0  0  0  0  0  0  0  0  0
  -27.2000  -10.2190    2.7240 H   0  0  0  0  0  0  0  0  0  0  0  0
  -28.6870   -7.5380    2.6730 H   0  0  0  0  0  0  0  0  0  0  0  0
  -28.0320   -8.3890    1.2640 H   0  0  0  0  0  0  0  0  0  0  0  0
  -29.3420   -9.1130    2.2110 H   0  0  0  0  0  0  0  0  0  0  0  0
  -28.9090   -9.7810    4.4550 H   0  0  0  0  0  0  0  0  0  0  0  0
  -26.8540   -6.8320    4.4070 H   0  0  0  0  0  0  0  0  0  0  0  0
  -24.7180   -5.6500    4.5220 H   0  0  0  0  0  0  0  0  0  0  0  0
  -23.1710   -4.4060    3.0470 H   0  0  0  0  0  0  0  0  0  0  0  0
  -26.3090  -18.6540    7.7270 C   0  0  0  0  0  0  0  0  0  0  0  0
  -27.6400  -18.7220    8.2200 O   0  0  0  0  0  0  0  0  0  0  0  0
  -28.3930  -17.5870    8.1350 C   0  0  0  0  0  0  0  0  0  0  0  0
  -27.9860  -16.3590    7.6090 C   0  0  0  0  0  0  0  0  0  0  0  0
  -28.8600  -15.2600    7.5810 C   0  0  0  0  0  0  0  0  0  0  0  0
  -28.4480  -13.9520    7.0420 C   0  0  0  0  0  0  0  0  0  0  0  0
  -27.2010  -13.3980    7.3680 C   0  0  0  0  0  0  0  0  0  0  0  0
  -26.8230  -12.1530    6.8520 C   0  0  0  0  0  0  0  0  0  0  0  0
  -27.6770  -11.4380    6.0100 C   0  0  0  0  0  0  0  0  0  0  0  0
  -27.1380  -10.1830    5.4000 C   0  0  0  0  0  0  0  0  0  0  0  0
  -25.9930   -9.8470    5.6830 O   0  0  0  0  0  0  0  0  0  0  0  0
  -28.9290  -11.9710    5.6910 C   0  0  0  0  0  0  0  0  0  0  0  0
  -29.3000  -13.2210    6.2050 C   0  0  0  0  0  0  0  0  0  0  0  0
  -30.1590  -15.4310    8.0910 C   0  0  0  0  0  0  0  0  0  0  0  0
  -30.5910  -16.6510    8.6300 C   0  0  0  0  0  0  0  0  0  0  0  0
  -31.9470  -16.7980    9.1740 C   0  0  0  0  0  0  0  0  0  0  0  0
  -32.5110  -15.7990    9.9840 C   0  0  0  0  0  0  0  0  0  0  0  0
  -33.8110  -15.9190   10.4720 C   0  0  0  0  0  0  0  0  0  0  0  0
  -34.5790  -17.0490   10.1650 C   0  0  0  0  0  0  0  0  0  0  0  0
  -36.0260  -17.1080   10.6050 C   0  0  2  0  0  0  0  0  0  0  0  0
  -36.1790  -18.1690   11.6970 C   0  0  0  0  0  0  0  0  0  0  0  0
  -36.9670  -17.3310    9.5080 N   0  0  0  0  0  0  0  0  0  0  0  0
  -34.0150  -18.0650    9.3820 C   0  0  0  0  0  0  0  0  0  0  0  0
  -32.7210  -17.9320    8.8830 C   0  0  0  0  0  0  0  0  0  0  0  0
  -29.6870  -17.7190    8.6390 C   0  0  0  0  0  0  0  0  0  0  0  0
  -25.7170  -17.9270    8.2910 H   0  0  0  0  0  0  0  0  0  0  0  0
  -25.8520  -19.6380    7.8680 H   0  0  0  0  0  0  0  0  0  0  0  0
  -26.2970  -18.4310    6.6550 H   0  0  0  0  0  0  0  0  0  0  0  0
  -26.9860  -16.2380    7.2040 H   0  0  0  0  0  0  0  0  0  0  0  0
  -26.5200  -13.9190    8.0300 H   0  0  0  0  0  0  0  0  0  0  0  0
  -25.8390  -11.7640    7.1010 H   0  0  0  0  0  0  0  0  0  0  0  0
  -29.6330  -11.4760    5.0370 H   0  0  0  0  0  0  0  0  0  0  0  0
  -30.2710  -13.6240    5.9150 H   0  0  0  0  0  0  0  0  0  0  0  0
  -30.8490  -14.5890    8.0740 H   0  0  0  0  0  0  0  0  0  0  0  0
  -31.9490  -14.9000   10.2260 H   0  0  0  0  0  0  0  0  0  0  0  0
  -34.2320  -15.1040   11.0550 H   0  0  0  0  0  0  0  0  0  0  0  0
  -36.3120  -16.1390   11.0320 H   0  0  0  0  0  0  0  0  0  0  0  0
  -35.9110  -19.1690   11.3380 H   0  0  0  0  0  0  0  0  0  0  0  0
  -35.5290  -17.9400   12.5520 H   0  0  0  0  0  0  0  0  0  0  0  0
  -37.2100  -18.2150   12.0610 H   0  0  0  0  0  0  0  0  0  0  0  0
  -37.8920  -17.6320    9.7810 H   0  0  0  0  0  0  0  0  0  0  0  0
  -34.6040  -18.9370    9.1060 H   0  0  0  0  0  0  0  0  0  0  0  0
  -32.3330  -18.7110    8.2300 H   0  0  0  0  0  0  0  0  0  0  0  0
  -29.9820  -18.6770    9.0600 H   0  0  0  0  0  0  0  0  0  0  0  0
    7.1730   -4.7230    0.7660 C   0  0  0  0  0  0  0  0  0  0  0  0
    6.6270   -3.5260    1.3090 O   0  0  0  0  0  0  0  0  0  0  0  0
    6.4850   -5.0750   -0.0090 H   0  0  0  0  0  0  0  0  0  0  0  0
    7.2100   -5.4750    1.5580 H   0  0  0  0  0  0  0  0  0  0  0  0
    8.1750   -4.5910    0.3490 H   0  0  0  0  0  0  0  0  0  0  0  0
  -34.2020  -14.8560    6.7800 C   0  0  0  0  0  0  0  0  0  0  0  0
  -35.7190  -15.0510    6.9450 C   0  0  0  0  0  0  0  0  0  0  0  0
  -36.3430  -13.7190    7.3590 C   0  0  0  0  0  0  0  0  0  0  0  0
  -36.2740  -15.5760    5.6190 C   0  0  0  0  0  0  0  0  0  0  0  0
  -35.8690  -16.0000    8.0260 O   0  0  0  0  0  0  0  0  0  0  0  0
  -37.0560  -16.5190    8.4030 C   0  0  0  0  0  0  0  0  0  0  0  0
  -38.1300  -16.3280    7.8500 O   0  0  0  0  0  0  0  0  0  0  0  0
  -33.9660  -14.1370    5.9880 H   0  0  0  0  0  0  0  0  0  0  0  0
  -33.7500  -14.4930    7.7090 H   0  0  0  0  0  0  0  0  0  0  0  0
  -33.7080  -15.8050    6.5400 H   0  0  0  0  0  0  0  0  0  0  0  0
  -35.9690  -13.4110    8.3430 H   0  0  0  0  0  0  0  0  0  0  0  0
  -37.4300  -13.7980    7.4500 H   0  0  0  0  0  0  0  0  0  0  0  0
  -36.1150  -12.9270    6.6390 H   0  0  0  0  0  0  0  0  0  0  0  0
  -35.8730  -16.5720    5.3970 H   0  0  0  0  0  0  0  0  0  0  0  0
  -37.3630  -15.6680    5.6360 H   0  0  0  0  0  0  0  0  0  0  0  0
  -36.0160  -14.9070    4.7910 H   0  0  0  0  0  0  0  0  0  0  0  0
  1 28  1  0  0  0  0
  2  1  1  0  0  0  0
  2  3  1  0  0  0  0
  3  4  1  0  0  0  0
  4  5  2  0  0  0  0
  4 29  1  0  0  0  0
  5  6  1  0  0  0  0
  6 13  1  0  0  0  0
  7  8  1  0  0  0  0
  7  6  2  0  0  0  0
  8  9  2  0  0  0  0
  9 10  1  0  0  0  0
  9 12  1  0  0  0  0
 10178  1  0  0  0  0
 11 10  2  0  0  0  0
 12 32  1  0  0  0  0
 13 12  2  0  0  0  0
 13 33  1  0  0  0  0
 14 34  1  0  0  0  0
 14  5  1  0  0  0  0
 15 14  2  0  0  0  0
 16 15  1  0  0  0  0
 16 24  1  0  0  0  0
 17 16  2  0  0  0  0
 18 17  1  0  0  0  0
 18 19  2  0  0  0  0
 19 23  1  0  0  0  0
 20 37  1  6  0  0  0
 20 19  1  0  0  0  0
 20 22  1  0  0  0  0
 21 38  1  0  0  0  0
 21 20  1  0  0  0  0
 22 54  1  0  0  0  0
 23 24  2  0  0  0  0
 23 42  1  0  0  0  0
 24 43  1  0  0  0  0
 25 15  1  0  0  0  0
 25  3  2  0  0  0  0
 26  1  1  0  0  0  0
 27  1  1  0  0  0  0
 30  7  1  0  0  0  0
 31  8  1  0  0  0  0
 35 17  1  0  0  0  0
 36 18  1  0  0  0  0
 39 21  1  0  0  0  0
 40 21  1  0  0  0  0
 41 22  1  0  0  0  0
 44 25  1  0  0  0  0
 45 71  1  0  0  0  0
 45 46  1  0  0  0  0
 45 70  1  0  0  0  0
 47 46  1  0  0  0  0
 47 69  1  0  0  0  0
 48 49  1  0  0  0  0
 48 47  2  0  0  0  0
 49 58  2  0  0  0  0
 50 51  1  0  0  0  0
 50 49  1  0  0  0  0
 51 74  1  0  0  0  0
 52 75  1  0  0  0  0
 52 51  2  0  0  0  0
 53 52  1  0  0  0  0
 54 55  2  0  0  0  0
 54 53  1  0  0  0  0
 56 53  2  0  0  0  0
 56 57  1  0  0  0  0
 57 50  2  0  0  0  0
 58 78  1  0  0  0  0
 58 59  1  0  0  0  0
 59 60  1  0  0  0  0
 60 61  1  0  0  0  0
 61 79  1  0  0  0  0
 61 62  2  0  0  0  0
 62 80  1  0  0  0  0
 63 62  1  0  0  0  0
 63 64  1  0  0  0  0
 64 81  1  1  0  0  0
 64 65  1  0  0  0  0
 65 84  1  0  0  0  0
 65 83  1  0  0  0  0
 66 85  1  0  0  0  0
 66 64  1  0  0  0  0
 67 63  2  0  0  0  0
 68 60  2  0  0  0  0
 68 67  1  0  0  0  0
 69 59  2  0  0  0  0
 69 88  1  0  0  0  0
 72 45  1  0  0  0  0
 73 48  1  0  0  0  0
 76 56  1  0  0  0  0
 77 57  1  0  0  0  0
 82 65  1  0  0  0  0
 86 67  1  0  0  0  0
 87 68  1  0  0  0  0
 89116  1  0  0  0  0
 90 89  1  0  0  0  0
 90 91  1  0  0  0  0
 91 92  1  0  0  0  0
 92117  1  0  0  0  0
 92 93  2  0  0  0  0
 93 94  1  0  0  0  0
 94101  1  0  0  0  0
 95 96  1  0  0  0  0
 95 94  2  0  0  0  0
 96 97  2  0  0  0  0
 97 98  1  0  0  0  0
 97100  1  0  0  0  0
 98 66  1  0  0  0  0
 99 98  2  0  0  0  0
100120  1  0  0  0  0
101100  2  0  0  0  0
101121  1  0  0  0  0
102 93  1  0  0  0  0
102122  1  0  0  0  0
103102  2  0  0  0  0
104103  1  0  0  0  0
104112  1  0  0  0  0
105104  2  0  0  0  0
106105  1  0  0  0  0
106107  2  0  0  0  0
107111  1  0  0  0  0
108125  1  6  0  0  0
108107  1  0  0  0  0
108110  1  0  0  0  0
109126  1  0  0  0  0
109108  1  0  0  0  0
110142  1  0  0  0  0
111112  2  0  0  0  0
111130  1  0  0  0  0
112131  1  0  0  0  0
113 91  2  0  0  0  0
113103  1  0  0  0  0
114 89  1  0  0  0  0
115 89  1  0  0  0  0
118 95  1  0  0  0  0
119 96  1  0  0  0  0
123105  1  0  0  0  0
124106  1  0  0  0  0
127109  1  0  0  0  0
128109  1  0  0  0  0
129110  1  0  0  0  0
132113  1  0  0  0  0
133159  1  0  0  0  0
133134  1  0  0  0  0
133158  1  0  0  0  0
135134  1  0  0  0  0
135157  1  0  0  0  0
136135  2  0  0  0  0
137136  1  0  0  0  0
137146  2  0  0  0  0
138139  1  0  0  0  0
138137  1  0  0  0  0
139162  1  0  0  0  0
140163  1  0  0  0  0
140139  2  0  0  0  0
141140  1  0  0  0  0
142143  2  0  0  0  0
142141  1  0  0  0  0
144141  2  0  0  0  0
144145  1  0  0  0  0
145138  2  0  0  0  0
146147  1  0  0  0  0
147157  2  0  0  0  0
147148  1  0  0  0  0
148149  1  0  0  0  0
149167  1  0  0  0  0
149150  2  0  0  0  0
150168  1  0  0  0  0
151150  1  0  0  0  0
151152  1  0  0  0  0
152169  1  1  0  0  0
152153  1  0  0  0  0
153172  1  0  0  0  0
153171  1  0  0  0  0
154173  1  0  0  0  0
154152  1  0  0  0  0
155151  2  0  0  0  0
156148  2  0  0  0  0
156155  1  0  0  0  0
157176  1  0  0  0  0
160133  1  0  0  0  0
161136  1  0  0  0  0
164144  1  0  0  0  0
165145  1  0  0  0  0
166146  1  0  0  0  0
170153  1  0  0  0  0
174155  1  0  0  0  0
175156  1  0  0  0  0
177178  1  0  0  0  0
177180  1  0  0  0  0
179177  1  0  0  0  0
181177  1  0  0  0  0
182183  1  0  0  0  0
182190  1  0  0  0  0
183184  1  0  0  0  0
183186  1  0  0  0  0
184193  1  0  0  0  0
184192  1  0  0  0  0
185196  1  0  0  0  0
185183  1  0  0  0  0
186187  1  0  0  0  0
187154  1  0  0  0  0
188187  2  0  0  0  0
189182  1  0  0  0  0
191182  1  0  0  0  0
194184  1  0  0  0  0
195185  1  0  0  0  0
197185  1  0  0  0  0
M  END
