pom_trimer.pdb
  -OEChem-09052517563D

153161  0     1  0  0  0  0  0999 V2000
   -2.9060   -5.6900   -0.6780 C   0  0  0  0  0  0  0  0  0  0  0  0
   -1.7590   -4.8540   -0.7630 O   0  0  0  0  0  0  0  0  0  0  0  0
   -1.8840   -3.5520   -0.3510 C   0  0  0  0  0  0  0  0  0  0  0  0
   -3.0360   -2.9560    0.1450 C   0  0  0  0  0  0  0  0  0  0  0  0
   -3.0150   -1.6120    0.5350 C   0  0  0  0  0  0  0  0  0  0  0  0
   -1.8520   -0.8320    0.4360 C   0  0  0  0  0  0  0  0  0  0  0  0
   -1.8720    0.5470    0.9610 C   0  0  0  0  0  0  0  0  0  0  0  0
   -0.9430    0.9470    1.9410 C   0  0  0  0  0  0  0  0  0  0  0  0
   -0.8610    2.2670    2.3460 C   0  0  0  0  0  0  0  0  0  0  0  0
   -1.6910    3.2030    1.7530 C   0  0  0  0  0  0  0  0  0  0  0  0
   -2.7340    2.8310    0.9000 C   0  0  0  0  0  0  0  0  0  0  0  0
   -3.7560    3.8020    0.3920 C   0  0  0  0  0  0  0  0  0  0  0  0
   -4.5360    3.5020   -0.4990 O   0  0  0  0  0  0  0  0  0  0  0  0
   -2.7920    1.4960    0.4750 C   0  0  0  0  0  0  0  0  0  0  0  0
   -0.6950   -1.4210   -0.1300 C   0  0  0  0  0  0  0  0  0  0  0  0
    0.5440   -0.6560   -0.3490 C   0  0  0  0  0  0  0  0  0  0  0  0
    1.7230   -1.0690    0.2580 C   0  0  0  0  0  0  0  0  0  0  0  0
    2.8570   -0.2790    0.1670 C   0  0  0  0  0  0  0  0  0  0  0  0
    2.9220    0.8550   -0.6460 C   0  0  0  0  0  0  0  0  0  0  0  0
    4.2260    1.6040   -0.8320 C   0  0  1  0  0  0  0  0  0  0  0  0
    4.7100    2.2520    0.4650 C   0  0  0  0  0  0  0  0  0  0  0  0
    5.3170    0.8150   -1.4210 N   0  0  0  0  0  0  0  0  0  0  0  0
    1.7390    1.2810   -1.2580 C   0  0  0  0  0  0  0  0  0  0  0  0
    0.5630    0.5380   -1.0950 C   0  0  0  0  0  0  0  0  0  0  0  0
   -0.7240   -2.7870   -0.4810 C   0  0  0  0  0  0  0  0  0  0  0  0
   -2.6220   -6.6730   -1.0670 H   0  0  0  0  0  0  0  0  0  0  0  0
   -3.2250   -5.8260    0.3610 H   0  0  0  0  0  0  0  0  0  0  0  0
   -3.7270   -5.3160   -1.2980 H   0  0  0  0  0  0  0  0  0  0  0  0
   -3.9680   -3.5000    0.2400 H   0  0  0  0  0  0  0  0  0  0  0  0
   -3.9220   -1.1640    0.9320 H   0  0  0  0  0  0  0  0  0  0  0  0
   -0.2170    0.2410    2.3430 H   0  0  0  0  0  0  0  0  0  0  0  0
   -0.1270    2.5850    3.0800 H   0  0  0  0  0  0  0  0  0  0  0  0
   -1.4660    4.2380    1.9670 H   0  0  0  0  0  0  0  0  0  0  0  0
   -3.5210    1.2040   -0.2800 H   0  0  0  0  0  0  0  0  0  0  0  0
    1.7790   -1.9850    0.8420 H   0  0  0  0  0  0  0  0  0  0  0  0
    3.7050   -0.5930    0.7600 H   0  0  0  0  0  0  0  0  0  0  0  0
    4.0500    2.4120   -1.5550 H   0  0  0  0  0  0  0  0  0  0  0  0
    5.5910    2.8820    0.2670 H   0  0  0  0  0  0  0  0  0  0  0  0
    5.0210    1.4940    1.1930 H   0  0  0  0  0  0  0  0  0  0  0  0
    3.9340    2.8800    0.9260 H   0  0  0  0  0  0  0  0  0  0  0  0
    5.9470    1.4170   -1.9220 H   0  0  0  0  0  0  0  0  0  0  0  0
    1.6990    2.2000   -1.8360 H   0  0  0  0  0  0  0  0  0  0  0  0
   -0.3580    0.9070   -1.5400 H   0  0  0  0  0  0  0  0  0  0  0  0
    0.1750   -3.2590   -0.8760 H   0  0  0  0  0  0  0  0  0  0  0  0
   10.8980   -4.8070    6.0940 C   0  0  0  0  0  0  0  0  0  0  0  0
   11.4280   -4.6140    4.7890 O   0  0  0  0  0  0  0  0  0  0  0  0
   10.7890   -3.7440    3.9520 C   0  0  0  0  0  0  0  0  0  0  0  0
    9.6720   -2.9740    4.2500 C   0  0  0  0  0  0  0  0  0  0  0  0
    9.1390   -2.0960    3.2940 C   0  0  0  0  0  0  0  0  0  0  0  0
    9.6980   -1.9650    2.0090 C   0  0  0  0  0  0  0  0  0  0  0  0
    9.1540   -0.9570    1.0660 C   0  0  0  0  0  0  0  0  0  0  0  0
    9.9640    0.0470    0.5010 C   0  0  0  0  0  0  0  0  0  0  0  0
    9.4640    0.9740   -0.4160 C   0  0  0  0  0  0  0  0  0  0  0  0
    8.1370    0.9180   -0.8050 C   0  0  0  0  0  0  0  0  0  0  0  0
    7.3170   -0.0830   -0.2930 C   0  0  0  0  0  0  0  0  0  0  0  0
    5.9070   -0.2230   -0.7060 C   0  0  0  0  0  0  0  0  0  0  0  0
    5.3390   -1.2520   -0.3610 O   0  0  0  0  0  0  0  0  0  0  0  0
    7.8150   -0.9940    0.6650 C   0  0  0  0  0  0  0  0  0  0  0  0
   10.7970   -2.7950    1.6820 C   0  0  0  0  0  0  0  0  0  0  0  0
   11.4160   -2.7760    0.3470 C   0  0  0  0  0  0  0  0  0  0  0  0
   12.7530   -2.4190    0.2170 C   0  0  0  0  0  0  0  0  0  0  0  0
   13.3110   -2.2690   -1.0420 C   0  0  0  0  0  0  0  0  0  0  0  0
   12.6200   -2.5930   -2.2080 C   0  0  0  0  0  0  0  0  0  0  0  0
   13.3140   -2.5440   -3.5540 C   0  0  1  0  0  0  0  0  0  0  0  0
   13.7280   -1.1180   -3.9250 C   0  0  0  0  0  0  0  0  0  0  0  0
   14.4660   -3.4450   -3.6910 N   0  0  0  0  0  0  0  0  0  0  0  0
   11.2770   -2.9540   -2.0940 C   0  0  0  0  0  0  0  0  0  0  0  0
   10.6810   -3.0270   -0.8270 C   0  0  0  0  0  0  0  0  0  0  0  0
   11.3380   -3.6470    2.6740 C   0  0  0  0  0  0  0  0  0  0  0  0
   11.5320   -5.5410    6.6030 H   0  0  0  0  0  0  0  0  0  0  0  0
   10.9340   -3.8830    6.6830 H   0  0  0  0  0  0  0  0  0  0  0  0
    9.8840   -5.2160    6.0630 H   0  0  0  0  0  0  0  0  0  0  0  0
    9.2020   -3.0200    5.2210 H   0  0  0  0  0  0  0  0  0  0  0  0
    8.2800   -1.4860    3.5680 H   0  0  0  0  0  0  0  0  0  0  0  0
   11.0190    0.1030    0.7570 H   0  0  0  0  0  0  0  0  0  0  0  0
   10.1130    1.7290   -0.8450 H   0  0  0  0  0  0  0  0  0  0  0  0
    7.7860    1.6540   -1.5170 H   0  0  0  0  0  0  0  0  0  0  0  0
    7.1560   -1.7540    1.0870 H   0  0  0  0  0  0  0  0  0  0  0  0
   13.3810   -2.2230    1.0820 H   0  0  0  0  0  0  0  0  0  0  0  0
   14.3270   -1.8960   -1.0780 H   0  0  0  0  0  0  0  0  0  0  0  0
   12.5950   -2.8990   -4.3280 H   0  0  0  0  0  0  0  0  0  0  0  0
   14.1070   -1.0890   -4.9530 H   0  0  0  0  0  0  0  0  0  0  0  0
   14.5300   -0.7620   -3.2760 H   0  0  0  0  0  0  0  0  0  0  0  0
   12.8890   -0.4240   -3.8410 H   0  0  0  0  0  0  0  0  0  0  0  0
   14.5840   -3.7140   -4.6530 H   0  0  0  0  0  0  0  0  0  0  0  0
   10.6670   -3.1500   -2.9730 H   0  0  0  0  0  0  0  0  0  0  0  0
    9.6220   -3.2660   -0.7580 H   0  0  0  0  0  0  0  0  0  0  0  0
   12.2100   -4.2540    2.4380 H   0  0  0  0  0  0  0  0  0  0  0  0
   23.7640    1.0400   -0.1110 C   0  0  0  0  0  0  0  0  0  0  0  0
   23.7780   -0.1240   -0.9310 O   0  0  0  0  0  0  0  0  0  0  0  0
   22.6030   -0.5160   -1.5120 C   0  0  0  0  0  0  0  0  0  0  0  0
   21.3860    0.0960   -1.4190 C   0  0  0  0  0  0  0  0  0  0  0  0
   20.2670   -0.4020   -2.1020 C   0  0  0  0  0  0  0  0  0  0  0  0
   20.3460   -1.5720   -2.8940 C   0  0  0  0  0  0  0  0  0  0  0  0
   19.1630   -2.0290   -3.6670 C   0  0  0  0  0  0  0  0  0  0  0  0
   19.2140   -2.2000   -5.0650 C   0  0  0  0  0  0  0  0  0  0  0  0
   18.1120   -2.6620   -5.7880 C   0  0  0  0  0  0  0  0  0  0  0  0
   16.9290   -2.9740   -5.1360 C   0  0  0  0  0  0  0  0  0  0  0  0
   16.8620   -2.8490   -3.7500 C   0  0  0  0  0  0  0  0  0  0  0  0
   15.6440   -3.2240   -2.9870 C   0  0  0  0  0  0  0  0  0  0  0  0
   15.7550   -3.2900   -1.7680 O   0  0  0  0  0  0  0  0  0  0  0  0
   17.9600   -2.3480   -3.0270 C   0  0  0  0  0  0  0  0  0  0  0  0
   21.5890   -2.2570   -2.9360 C   0  0  0  0  0  0  0  0  0  0  0  0
   21.7630   -3.5200   -3.6770 C   0  0  0  0  0  0  0  0  0  0  0  0
   22.6810   -3.5830   -4.7170 C   0  0  0  0  0  0  0  0  0  0  0  0
   22.7710   -4.7250   -5.5010 C   0  0  0  0  0  0  0  0  0  0  0  0
   22.0710   -5.9030   -5.2150 C   0  0  0  0  0  0  0  0  0  0  0  0
   22.2790   -7.1630   -6.0430 C   0  0  1  0  0  0  0  0  0  0  0  0
   21.8040   -6.9670   -7.4870 C   0  0  0  0  0  0  0  0  0  0  0  0
   23.6540   -7.7140   -6.0660 N   0  0  0  0  0  0  0  0  0  0  0  0
   21.1260   -5.8400   -4.1850 C   0  0  0  0  0  0  0  0  0  0  0  0
   20.9710   -4.6560   -3.4350 C   0  0  0  0  0  0  0  0  0  0  0  0
   22.7100   -1.6950   -2.2690 C   0  0  0  0  0  0  0  0  0  0  0  0
   24.7840    1.1920    0.2600 H   0  0  0  0  0  0  0  0  0  0  0  0
   23.4890    1.9310   -0.6850 H   0  0  0  0  0  0  0  0  0  0  0  0
   23.1140    0.9110    0.7610 H   0  0  0  0  0  0  0  0  0  0  0  0
   21.2430    1.0070   -0.8280 H   0  0  0  0  0  0  0  0  0  0  0  0
   19.3080    0.1290   -2.0350 H   0  0  0  0  0  0  0  0  0  0  0  0
   20.1360   -1.9960   -5.6040 H   0  0  0  0  0  0  0  0  0  0  0  0
   18.1780   -2.8100   -6.8620 H   0  0  0  0  0  0  0  0  0  0  0  0
   16.0940   -3.3130   -5.7360 H   0  0  0  0  0  0  0  0  0  0  0  0
   17.8860   -2.2270   -1.9460 H   0  0  0  0  0  0  0  0  0  0  0  0
   23.3250   -2.7420   -4.9640 H   0  0  0  0  0  0  0  0  0  0  0  0
   23.4290   -4.6580   -6.3580 H   0  0  0  0  0  0  0  0  0  0  0  0
   21.6640   -7.9600   -5.5980 H   0  0  0  0  0  0  0  0  0  0  0  0
   21.8580   -7.9200   -8.0300 H   0  0  0  0  0  0  0  0  0  0  0  0
   22.4510   -6.2600   -8.0150 H   0  0  0  0  0  0  0  0  0  0  0  0
   20.7810   -6.5970   -7.5300 H   0  0  0  0  0  0  0  0  0  0  0  0
   23.6750   -8.6890   -6.3270 H   0  0  0  0  0  0  0  0  0  0  0  0
   20.4780   -6.6820   -3.9610 H   0  0  0  0  0  0  0  0  0  0  0  0
   20.2030   -4.6240   -2.6630 H   0  0  0  0  0  0  0  0  0  0  0  0
   23.6720   -2.1930   -2.3480 H   0  0  0  0  0  0  0  0  0  0  0  0
   -3.7990    5.2420    2.3280 C   0  0  0  0  0  0  0  0  0  0  0  0
   -3.6960    5.0630    0.9080 O   0  0  0  0  0  0  0  0  0  0  0  0
   -4.6400    4.6790    2.7360 H   0  0  0  0  0  0  0  0  0  0  0  0
   -3.8960    6.3090    2.5330 H   0  0  0  0  0  0  0  0  0  0  0  0
   -2.9000    4.9520    2.8640 H   0  0  0  0  0  0  0  0  0  0  0  0
   26.6530   -7.9500   -9.5910 C   0  0  0  0  0  0  0  0  0  0  0  0
   26.1620   -6.9220   -8.5630 C   0  0  0  0  0  0  0  0  0  0  0  0
   27.3830   -6.4010   -7.7850 C   0  0  0  0  0  0  0  0  0  0  0  0
   25.4880   -5.7720   -9.3400 C   0  0  0  0  0  0  0  0  0  0  0  0
   25.2100   -7.6520   -7.7190 O   0  0  0  0  0  0  0  0  0  0  0  0
   24.6900   -7.0090   -6.6390 C   0  0  0  0  0  0  0  0  0  0  0  0
   25.0800   -5.9140   -6.2760 O   0  0  0  0  0  0  0  0  0  0  0  0
   27.3600   -7.5080  -10.3020 H   0  0  0  0  0  0  0  0  0  0  0  0
   27.1470   -8.7900   -9.0910 H   0  0  0  0  0  0  0  0  0  0  0  0
   25.8110   -8.3650  -10.1560 H   0  0  0  0  0  0  0  0  0  0  0  0
   27.8150   -7.1880   -7.1610 H   0  0  0  0  0  0  0  0  0  0  0  0
   27.1320   -5.5680   -7.1210 H   0  0  0  0  0  0  0  0  0  0  0  0
   28.1550   -6.0190   -8.4610 H   0  0  0  0  0  0  0  0  0  0  0  0
   24.5920   -6.1170   -9.8650 H   0  0  0  0  0  0  0  0  0  0  0  0
   25.1760   -4.9530   -8.6830 H   0  0  0  0  0  0  0  0  0  0  0  0
   26.1730   -5.3430  -10.0830 H   0  0  0  0  0  0  0  0  0  0  0  0
  1 27  1  0  0  0  0
  1  2  1  0  0  0  0
  2  3  1  0  0  0  0
  3  4  2  0  0  0  0
  4 29  1  0  0  0  0
  4  5  1  0  0  0  0
  5 30  1  0  0  0  0
  5  6  2  0  0  0  0
  6  7  1  0  0  0  0
  7  8  2  0  0  0  0
  8 31  1  0  0  0  0
  8  9  1  0  0  0  0
  9 32  1  0  0  0  0
 10 33  1  0  0  0  0
  9 10  2  0  0  0  0
 10 11  1  0  0  0  0
 11 12  1  0  0  0  0
 12134  1  0  0  0  0
 12 13  2  0  0  0  0
 11 14  2  0  0  0  0
  7 14  1  0  0  0  0
  6 15  1  0  0  0  0
 15 16  1  0  0  0  0
 16 17  2  0  0  0  0
 17 35  1  0  0  0  0
 17 18  1  0  0  0  0
 18 36  1  0  0  0  0
 18 19  2  0  0  0  0
 20 37  1  0  0  0  0
 19 20  1  0  0  0  0
 20 21  1  0  0  0  0
 21 40  1  0  0  0  0
 21 39  1  0  0  0  0
 20 22  1  0  0  0  0
 22 56  1  0  0  0  0
 23 24  2  0  0  0  0
 19 23  1  0  0  0  0
 16 24  1  0  0  0  0
  3 25  1  0  0  0  0
 15 25  2  0  0  0  0
  1 26  1  0  0  0  0
  1 28  1  0  0  0  0
 14 34  1  0  0  0  0
 21 38  1  0  0  0  0
 22 41  1  0  0  0  0
 23 42  1  0  0  0  0
 24 43  1  0  0  0  0
 25 44  1  0  0  0  0
 45 70  1  0  0  0  0
 45 71  1  0  0  0  0
 45 46  1  0  0  0  0
 47 48  2  0  0  0  0
 46 47  1  0  0  0  0
 48 73  1  0  0  0  0
 49 74  1  0  0  0  0
 48 49  1  0  0  0  0
 49 50  2  0  0  0  0
 50 51  1  0  0  0  0
 52 75  1  0  0  0  0
 51 52  2  0  0  0  0
 52 53  1  0  0  0  0
 53 54  2  0  0  0  0
 54 55  1  0  0  0  0
 55 58  2  0  0  0  0
 56 57  2  0  0  0  0
 55 56  1  0  0  0  0
 51 58  1  0  0  0  0
 58 78  1  0  0  0  0
 50 59  1  0  0  0  0
 59 69  2  0  0  0  0
 59 60  1  0  0  0  0
 60 61  2  0  0  0  0
 61 79  1  0  0  0  0
 61 62  1  0  0  0  0
 63 67  1  0  0  0  0
 62 63  2  0  0  0  0
 64 81  1  0  0  0  0
 63 64  1  0  0  0  0
 65 84  1  0  0  0  0
 64 65  1  0  0  0  0
 65 83  1  0  0  0  0
 64 66  1  0  0  0  0
 66100  1  0  0  0  0
 67 68  2  0  0  0  0
 68 87  1  0  0  0  0
 60 68  1  0  0  0  0
 47 69  1  0  0  0  0
 45 72  1  0  0  0  0
 53 76  1  0  0  0  0
 54 77  1  0  0  0  0
 62 80  1  0  0  0  0
 65 82  1  0  0  0  0
 66 85  1  0  0  0  0
 67 86  1  0  0  0  0
 69 88  1  0  0  0  0
 89114  1  0  0  0  0
 89116  1  0  0  0  0
 89 90  1  0  0  0  0
 91 92  2  0  0  0  0
 90 91  1  0  0  0  0
 92117  1  0  0  0  0
 93118  1  0  0  0  0
 92 93  1  0  0  0  0
 93 94  2  0  0  0  0
 95102  1  0  0  0  0
 94 95  1  0  0  0  0
 95 96  2  0  0  0  0
 97 98  2  0  0  0  0
 96 97  1  0  0  0  0
 98 99  1  0  0  0  0
 99102  2  0  0  0  0
 99100  1  0  0  0  0
100101  2  0  0  0  0
102122  1  0  0  0  0
 94103  1  0  0  0  0
103113  2  0  0  0  0
104112  1  0  0  0  0
103104  1  0  0  0  0
104105  2  0  0  0  0
106107  2  0  0  0  0
105106  1  0  0  0  0
107111  1  0  0  0  0
108125  1  0  0  0  0
107108  1  0  0  0  0
108109  1  0  0  0  0
108110  1  0  0  0  0
111130  1  0  0  0  0
111112  2  0  0  0  0
112131  1  0  0  0  0
 91113  1  0  0  0  0
 89115  1  0  0  0  0
 96119  1  0  0  0  0
 97120  1  0  0  0  0
 98121  1  0  0  0  0
105123  1  0  0  0  0
106124  1  0  0  0  0
109126  1  0  0  0  0
109127  1  0  0  0  0
109128  1  0  0  0  0
110129  1  0  0  0  0
113132  1  0  0  0  0
133136  1  0  0  0  0
133135  1  0  0  0  0
133137  1  0  0  0  0
133134  1  0  0  0  0
138146  1  0  0  0  0
138139  1  0  0  0  0
139140  1  0  0  0  0
139142  1  0  0  0  0
140148  1  0  0  0  0
140149  1  0  0  0  0
141152  1  0  0  0  0
139141  1  0  0  0  0
142143  1  0  0  0  0
143144  2  0  0  0  0
110143  1  0  0  0  0
138145  1  0  0  0  0
138147  1  0  0  0  0
140150  1  0  0  0  0
141151  1  0  0  0  0
141153  1  0  0  0  0
M  END
> <atom.dprop.PartialCharge>
0.107500 -0.318850 0.122910 -0.201490 -0.082650 -0.070870 -0.049550 -0.084530 -0.148500 -0.073790 -0.134550 0.646480 -0.536200 -0.058620 0.005070 -0.041100 -0.111900 -0.121450 -0.095230 0.152630 -0.108450 -0.574080 -0.121450 -0.111900 -0.144050 0.045360 0.045360 0.045360 0.141860 0.140710 0.138590 0.141700 0.154780 0.159100 0.139750 0.136690 0.089110 0.044640 0.044640 0.044640 0.310850 0.136690 0.139750 0.157840 0.112590 -0.324700 0.124120 -0.205900 -0.085370 -0.071500 -0.040370 -0.091400 -0.141780 -0.078110 -0.141430 0.672110 -0.603250 -0.091550 0.008820 -0.045680 -0.109850 -0.120380 -0.091300 0.154120 -0.113350 -0.568800 -0.120380 -0.109850 -0.144650 0.045020 0.045020 0.045020 0.140390 0.138130 0.138920 0.138650 0.155860 0.140590 0.138640 0.136180 0.083980 0.044710 0.044710 0.044710 0.314090 0.136180 0.138640 0.158370 0.115770 -0.334990 0.151550 -0.184230 -0.084860 -0.072770 -0.039570 -0.093390 -0.142840 -0.076830 -0.143290 0.678190 -0.614360 -0.089200 -0.000390 -0.031180 -0.118790 -0.115450 -0.112050 0.158400 -0.101670 -0.550840 -0.115450 -0.118790 -0.135780 0.041760 0.041760 0.041760 0.139690 0.136310 0.137680 0.135380 0.153970 0.145700 0.137030 0.135660 0.090630 0.046290 0.046290 0.046290 0.320610 0.135660 0.137030 0.149470 0.126000 -0.447080 0.053510 0.053510 0.053510 -0.113150 0.187100 -0.113150 -0.113150 -0.453270 0.753770 -0.598680 0.051350 0.051350 0.051350 0.051350 0.051350 0.051350 0.051350 0.051350 0.051350

$$$$
