pom_trimer.pdb
  -OEChem-08282513493D

153161  0     1  0  0  0  0  0999 V2000
   -2.9020   -5.6820   -0.6690 C   0  0  0  0  0  0  0  0  0  0  0  0
   -1.7650   -4.8380   -0.7880 O   0  0  0  0  0  0  0  0  0  0  0  0
   -1.9120   -3.5410   -0.3830 C   0  0  0  0  0  0  0  0  0  0  0  0
   -3.0620   -2.9680    0.1510 C   0  0  0  0  0  0  0  0  0  0  0  0
   -3.0610   -1.6300    0.5650 C   0  0  0  0  0  0  0  0  0  0  0  0
   -1.9060   -0.8320    0.4510 C   0  0  0  0  0  0  0  0  0  0  0  0
   -1.9140    0.5470    0.9850 C   0  0  0  0  0  0  0  0  0  0  0  0
   -0.9550    0.9350    1.9380 C   0  0  0  0  0  0  0  0  0  0  0  0
   -0.7840    2.2700    2.2830 C   0  0  0  0  0  0  0  0  0  0  0  0
   -1.6030    3.2340    1.7160 C   0  0  0  0  0  0  0  0  0  0  0  0
   -2.6870    2.8610    0.9010 C   0  0  0  0  0  0  0  0  0  0  0  0
   -3.6620    3.8680    0.3810 C   0  0  0  0  0  0  0  0  0  0  0  0
   -4.4320    3.6120   -0.5260 O   0  0  0  0  0  0  0  0  0  0  0  0
   -2.8130    1.5200    0.5130 C   0  0  0  0  0  0  0  0  0  0  0  0
   -0.7470   -1.3980   -0.1440 C   0  0  0  0  0  0  0  0  0  0  0  0
    0.5030   -0.6360   -0.3350 C   0  0  0  0  0  0  0  0  0  0  0  0
    1.6570   -1.0170    0.3530 C   0  0  0  0  0  0  0  0  0  0  0  0
    2.8290   -0.2700    0.2490 C   0  0  0  0  0  0  0  0  0  0  0  0
    2.9260    0.8230   -0.6150 C   0  0  0  0  0  0  0  0  0  0  0  0
    4.2280    1.5800   -0.7880 C   0  0  1  0  0  0  0  0  0  0  0  0
    4.6890    2.2510    0.5100 C   0  0  0  0  0  0  0  0  0  0  0  0
    5.3300    0.8250   -1.4040 N   0  0  0  0  0  0  0  0  0  0  0  0
    1.7660    1.2210   -1.2970 C   0  0  0  0  0  0  0  0  0  0  0  0
    0.5690    0.5050   -1.1500 C   0  0  0  0  0  0  0  0  0  0  0  0
   -0.7720   -2.7520   -0.5350 C   0  0  0  0  0  0  0  0  0  0  0  0
   -2.6150   -6.6800   -1.0150 H   0  0  0  0  0  0  0  0  0  0  0  0
   -3.2240   -5.7720    0.3740 H   0  0  0  0  0  0  0  0  0  0  0  0
   -3.7190   -5.3280   -1.3070 H   0  0  0  0  0  0  0  0  0  0  0  0
   -3.9760   -3.5380    0.2770 H   0  0  0  0  0  0  0  0  0  0  0  0
   -3.9610   -1.2210    1.0080 H   0  0  0  0  0  0  0  0  0  0  0  0
   -0.2770    0.1960    2.3620 H   0  0  0  0  0  0  0  0  0  0  0  0
    0.0120    2.5590    2.9640 H   0  0  0  0  0  0  0  0  0  0  0  0
   -1.3810    4.2760    1.9160 H   0  0  0  0  0  0  0  0  0  0  0  0
   -3.5880    1.2390   -0.2000 H   0  0  0  0  0  0  0  0  0  0  0  0
    1.6570   -1.8960    0.9930 H   0  0  0  0  0  0  0  0  0  0  0  0
    3.6800   -0.5860    0.8450 H   0  0  0  0  0  0  0  0  0  0  0  0
    4.0420    2.3920   -1.5050 H   0  0  0  0  0  0  0  0  0  0  0  0
    5.5740    2.8730    0.3260 H   0  0  0  0  0  0  0  0  0  0  0  0
    4.9640    1.5170    1.2750 H   0  0  0  0  0  0  0  0  0  0  0  0
    3.9060    2.8940    0.9250 H   0  0  0  0  0  0  0  0  0  0  0  0
    5.9540    1.4440   -1.8930 H   0  0  0  0  0  0  0  0  0  0  0  0
    1.7720    2.0980   -1.9410 H   0  0  0  0  0  0  0  0  0  0  0  0
   -0.3200    0.8510   -1.6750 H   0  0  0  0  0  0  0  0  0  0  0  0
    0.1220   -3.2040   -0.9640 H   0  0  0  0  0  0  0  0  0  0  0  0
   10.8800   -4.7840    6.0950 C   0  0  0  0  0  0  0  0  0  0  0  0
   11.3970   -4.6350    4.7800 O   0  0  0  0  0  0  0  0  0  0  0  0
   10.7590   -3.7540    3.9520 C   0  0  0  0  0  0  0  0  0  0  0  0
    9.6590   -2.9660    4.2680 C   0  0  0  0  0  0  0  0  0  0  0  0
    9.1370   -2.0700    3.3210 C   0  0  0  0  0  0  0  0  0  0  0  0
    9.6970   -1.9450    2.0360 C   0  0  0  0  0  0  0  0  0  0  0  0
    9.1650   -0.9320    1.0920 C   0  0  0  0  0  0  0  0  0  0  0  0
    9.9860    0.0890    0.5840 C   0  0  0  0  0  0  0  0  0  0  0  0
    9.5110    1.0000   -0.3630 C   0  0  0  0  0  0  0  0  0  0  0  0
    8.1980    0.9160   -0.8190 C   0  0  0  0  0  0  0  0  0  0  0  0
    7.3570   -0.0900   -0.3360 C   0  0  0  0  0  0  0  0  0  0  0  0
    5.9380   -0.2450   -0.7600 C   0  0  0  0  0  0  0  0  0  0  0  0
    5.3600   -1.2960   -0.4940 O   0  0  0  0  0  0  0  0  0  0  0  0
    7.8440   -0.9970    0.6280 C   0  0  0  0  0  0  0  0  0  0  0  0
   10.7850   -2.7870    1.6990 C   0  0  0  0  0  0  0  0  0  0  0  0
   11.4170   -2.7550    0.3710 C   0  0  0  0  0  0  0  0  0  0  0  0
   12.7480   -2.3550    0.2530 C   0  0  0  0  0  0  0  0  0  0  0  0
   13.3370   -2.2260   -0.9990 C   0  0  0  0  0  0  0  0  0  0  0  0
   12.6600   -2.5890   -2.1680 C   0  0  0  0  0  0  0  0  0  0  0  0
   13.3330   -2.5260   -3.5220 C   0  0  1  0  0  0  0  0  0  0  0  0
   13.7110   -1.0930   -3.9120 C   0  0  0  0  0  0  0  0  0  0  0  0
   14.4660   -3.4410   -3.7160 N   0  0  0  0  0  0  0  0  0  0  0  0
   11.3180   -2.9790   -2.0550 C   0  0  0  0  0  0  0  0  0  0  0  0
   10.7030   -3.0530   -0.8000 C   0  0  0  0  0  0  0  0  0  0  0  0
   11.3080   -3.6650    2.6730 C   0  0  0  0  0  0  0  0  0  0  0  0
   11.5170   -5.5010    6.6230 H   0  0  0  0  0  0  0  0  0  0  0  0
   10.9150   -3.8400    6.6470 H   0  0  0  0  0  0  0  0  0  0  0  0
    9.8650   -5.1940    6.0720 H   0  0  0  0  0  0  0  0  0  0  0  0
    9.1880   -3.0110    5.2430 H   0  0  0  0  0  0  0  0  0  0  0  0
    8.2910   -1.4470    3.6060 H   0  0  0  0  0  0  0  0  0  0  0  0
   11.0250    0.1620    0.9000 H   0  0  0  0  0  0  0  0  0  0  0  0
   10.1760    1.7650   -0.7570 H   0  0  0  0  0  0  0  0  0  0  0  0
    7.8740    1.6380   -1.5580 H   0  0  0  0  0  0  0  0  0  0  0  0
    7.1880   -1.7820    1.0040 H   0  0  0  0  0  0  0  0  0  0  0  0
   13.3400   -2.1210    1.1350 H   0  0  0  0  0  0  0  0  0  0  0  0
   14.3570   -1.8560   -1.0380 H   0  0  0  0  0  0  0  0  0  0  0  0
   12.6020   -2.8670   -4.2670 H   0  0  0  0  0  0  0  0  0  0  0  0
   14.0890   -1.0660   -4.9400 H   0  0  0  0  0  0  0  0  0  0  0  0
   14.4950   -0.6860   -3.2650 H   0  0  0  0  0  0  0  0  0  0  0  0
   12.8440   -0.4260   -3.8530 H   0  0  0  0  0  0  0  0  0  0  0  0
   14.5670   -3.6810   -4.6860 H   0  0  0  0  0  0  0  0  0  0  0  0
   10.7280   -3.2150   -2.9370 H   0  0  0  0  0  0  0  0  0  0  0  0
    9.6530   -3.3340   -0.7410 H   0  0  0  0  0  0  0  0  0  0  0  0
   12.1640   -4.2920    2.4280 H   0  0  0  0  0  0  0  0  0  0  0  0
   23.7160    1.0230   -0.1300 C   0  0  0  0  0  0  0  0  0  0  0  0
   23.7510   -0.1580   -0.9190 O   0  0  0  0  0  0  0  0  0  0  0  0
   22.5800   -0.5600   -1.4990 C   0  0  0  0  0  0  0  0  0  0  0  0
   21.3530    0.0880   -1.4180 C   0  0  0  0  0  0  0  0  0  0  0  0
   20.2420   -0.4220   -2.1060 C   0  0  0  0  0  0  0  0  0  0  0  0
   20.3300   -1.5900   -2.8880 C   0  0  0  0  0  0  0  0  0  0  0  0
   19.1580   -2.0390   -3.6730 C   0  0  0  0  0  0  0  0  0  0  0  0
   19.2240   -2.1530   -5.0720 C   0  0  0  0  0  0  0  0  0  0  0  0
   18.1460   -2.6400   -5.8130 C   0  0  0  0  0  0  0  0  0  0  0  0
   16.9700   -3.0190   -5.1710 C   0  0  0  0  0  0  0  0  0  0  0  0
   16.8750   -2.9210   -3.7800 C   0  0  0  0  0  0  0  0  0  0  0  0
   15.6540   -3.2990   -3.0140 C   0  0  0  0  0  0  0  0  0  0  0  0
   15.7550   -3.4430   -1.8010 O   0  0  0  0  0  0  0  0  0  0  0  0
   17.9640   -2.4150   -3.0440 C   0  0  0  0  0  0  0  0  0  0  0  0
   21.5650   -2.2830   -2.9230 C   0  0  0  0  0  0  0  0  0  0  0  0
   21.7490   -3.5300   -3.6880 C   0  0  0  0  0  0  0  0  0  0  0  0
   22.6340   -3.5480   -4.7660 C   0  0  0  0  0  0  0  0  0  0  0  0
   22.7610   -4.6830   -5.5630 C   0  0  0  0  0  0  0  0  0  0  0  0
   22.1070   -5.8810   -5.2550 C   0  0  0  0  0  0  0  0  0  0  0  0
   22.3030   -7.1330   -6.0880 C   0  0  1  0  0  0  0  0  0  0  0  0
   21.7720   -6.9470   -7.5130 C   0  0  0  0  0  0  0  0  0  0  0  0
   23.6610   -7.7110   -6.1390 N   0  0  0  0  0  0  0  0  0  0  0  0
   21.1970   -5.8590   -4.1860 C   0  0  0  0  0  0  0  0  0  0  0  0
   21.0150   -4.6960   -3.4200 C   0  0  0  0  0  0  0  0  0  0  0  0
   22.6730   -1.7390   -2.2390 C   0  0  0  0  0  0  0  0  0  0  0  0
   24.7240    1.1920    0.2620 H   0  0  0  0  0  0  0  0  0  0  0  0
   23.4430    1.8950   -0.7320 H   0  0  0  0  0  0  0  0  0  0  0  0
   23.0420    0.9040    0.7250 H   0  0  0  0  0  0  0  0  0  0  0  0
   21.2250    0.9990   -0.8420 H   0  0  0  0  0  0  0  0  0  0  0  0
   19.3000    0.1200   -2.0450 H   0  0  0  0  0  0  0  0  0  0  0  0
   20.1410   -1.8910   -5.5970 H   0  0  0  0  0  0  0  0  0  0  0  0
   18.2350   -2.7420   -6.8920 H   0  0  0  0  0  0  0  0  0  0  0  0
   16.1620   -3.3990   -5.7830 H   0  0  0  0  0  0  0  0  0  0  0  0
   17.8890   -2.3360   -1.9590 H   0  0  0  0  0  0  0  0  0  0  0  0
   23.2220   -2.6670   -5.0150 H   0  0  0  0  0  0  0  0  0  0  0  0
   23.4060   -4.6050   -6.4320 H   0  0  0  0  0  0  0  0  0  0  0  0
   21.7050   -7.9340   -5.6300 H   0  0  0  0  0  0  0  0  0  0  0  0
   21.8160   -7.8940   -8.0640 H   0  0  0  0  0  0  0  0  0  0  0  0
   22.3680   -6.2190   -8.0760 H   0  0  0  0  0  0  0  0  0  0  0  0
   20.7320   -6.6050   -7.5100 H   0  0  0  0  0  0  0  0  0  0  0  0
   23.6600   -8.6420   -6.5210 H   0  0  0  0  0  0  0  0  0  0  0  0
   20.6000   -6.7360   -3.9430 H   0  0  0  0  0  0  0  0  0  0  0  0
   20.2820   -4.7020   -2.6150 H   0  0  0  0  0  0  0  0  0  0  0  0
   23.6370   -2.2460   -2.2890 H   0  0  0  0  0  0  0  0  0  0  0  0
   -3.8470    5.2890    2.3050 C   0  0  0  0  0  0  0  0  0  0  0  0
   -3.5300    5.1110    0.9150 O   0  0  0  0  0  0  0  0  0  0  0  0
   -4.6850    4.6590    2.6150 H   0  0  0  0  0  0  0  0  0  0  0  0
   -4.1080    6.3400    2.4580 H   0  0  0  0  0  0  0  0  0  0  0  0
   -2.9780    5.0920    2.9400 H   0  0  0  0  0  0  0  0  0  0  0  0
   26.6510   -7.9870   -9.5860 C   0  0  0  0  0  0  0  0  0  0  0  0
   26.1900   -6.9440   -8.5580 C   0  0  0  0  0  0  0  0  0  0  0  0
   27.4210   -6.4330   -7.8010 C   0  0  0  0  0  0  0  0  0  0  0  0
   25.4900   -5.8000   -9.3130 C   0  0  0  0  0  0  0  0  0  0  0  0
   25.2480   -7.6540   -7.6980 O   0  0  0  0  0  0  0  0  0  0  0  0
   24.7330   -7.0120   -6.6210 C   0  0  0  0  0  0  0  0  0  0  0  0
   25.1460   -5.9480   -6.1950 O   0  0  0  0  0  0  0  0  0  0  0  0
   27.3600   -7.5600  -10.3030 H   0  0  0  0  0  0  0  0  0  0  0  0
   27.1310   -8.8340   -9.0840 H   0  0  0  0  0  0  0  0  0  0  0  0
   25.7990   -8.3930  -10.1420 H   0  0  0  0  0  0  0  0  0  0  0  0
   27.8250   -7.2120   -7.1460 H   0  0  0  0  0  0  0  0  0  0  0  0
   27.1920   -5.5700   -7.1680 H   0  0  0  0  0  0  0  0  0  0  0  0
   28.2050   -6.1060   -8.4910 H   0  0  0  0  0  0  0  0  0  0  0  0
   24.5960   -6.1590   -9.8360 H   0  0  0  0  0  0  0  0  0  0  0  0
   25.1580   -5.0060   -8.6370 H   0  0  0  0  0  0  0  0  0  0  0  0
   26.1600   -5.3470  -10.0530 H   0  0  0  0  0  0  0  0  0  0  0  0
  1 27  1  0  0  0  0
  1  2  1  0  0  0  0
  2  3  1  0  0  0  0
  3  4  2  0  0  0  0
  4 29  1  0  0  0  0
  4  5  1  0  0  0  0
  5 30  1  0  0  0  0
  5  6  2  0  0  0  0
  6  7  1  0  0  0  0
  7  8  2  0  0  0  0
  8  9  1  0  0  0  0
  8 31  1  0  0  0  0
  9 32  1  0  0  0  0
 10 33  1  0  0  0  0
  9 10  2  0  0  0  0
 10 11  1  0  0  0  0
 11 12  1  0  0  0  0
 12134  1  0  0  0  0
 12 13  2  0  0  0  0
 11 14  2  0  0  0  0
  7 14  1  0  0  0  0
  6 15  1  0  0  0  0
 15 16  1  0  0  0  0
 16 17  2  0  0  0  0
 17 35  1  0  0  0  0
 17 18  1  0  0  0  0
 18 36  1  0  0  0  0
 18 19  2  0  0  0  0
 20 37  1  0  0  0  0
 19 20  1  0  0  0  0
 20 21  1  0  0  0  0
 21 40  1  0  0  0  0
 21 39  1  0  0  0  0
 20 22  1  0  0  0  0
 22 56  1  0  0  0  0
 23 24  2  0  0  0  0
 19 23  1  0  0  0  0
 16 24  1  0  0  0  0
  3 25  1  0  0  0  0
 15 25  2  0  0  0  0
  1 26  1  0  0  0  0
  1 28  1  0  0  0  0
 14 34  1  0  0  0  0
 21 38  1  0  0  0  0
 22 41  1  0  0  0  0
 23 42  1  0  0  0  0
 24 43  1  0  0  0  0
 25 44  1  0  0  0  0
 45 70  1  0  0  0  0
 45 71  1  0  0  0  0
 45 46  1  0  0  0  0
 47 48  2  0  0  0  0
 46 47  1  0  0  0  0
 48 73  1  0  0  0  0
 49 74  1  0  0  0  0
 48 49  1  0  0  0  0
 49 50  2  0  0  0  0
 50 51  1  0  0  0  0
 52 75  1  0  0  0  0
 51 52  2  0  0  0  0
 52 53  1  0  0  0  0
 53 54  2  0  0  0  0
 54 55  1  0  0  0  0
 55 58  2  0  0  0  0
 56 57  2  0  0  0  0
 55 56  1  0  0  0  0
 58 78  1  0  0  0  0
 51 58  1  0  0  0  0
 50 59  1  0  0  0  0
 59 69  2  0  0  0  0
 59 60  1  0  0  0  0
 60 61  2  0  0  0  0
 61 79  1  0  0  0  0
 61 62  1  0  0  0  0
 63 67  1  0  0  0  0
 62 63  2  0  0  0  0
 64 81  1  0  0  0  0
 63 64  1  0  0  0  0
 65 84  1  0  0  0  0
 64 65  1  0  0  0  0
 65 83  1  0  0  0  0
 64 66  1  0  0  0  0
 66100  1  0  0  0  0
 67 68  2  0  0  0  0
 68 87  1  0  0  0  0
 60 68  1  0  0  0  0
 47 69  1  0  0  0  0
 45 72  1  0  0  0  0
 53 76  1  0  0  0  0
 54 77  1  0  0  0  0
 62 80  1  0  0  0  0
 65 82  1  0  0  0  0
 66 85  1  0  0  0  0
 67 86  1  0  0  0  0
 69 88  1  0  0  0  0
 89114  1  0  0  0  0
 89116  1  0  0  0  0
 89 90  1  0  0  0  0
 91 92  2  0  0  0  0
 90 91  1  0  0  0  0
 92117  1  0  0  0  0
 93118  1  0  0  0  0
 92 93  1  0  0  0  0
 93 94  2  0  0  0  0
 95102  1  0  0  0  0
 94 95  1  0  0  0  0
 95 96  2  0  0  0  0
 97 98  2  0  0  0  0
 96 97  1  0  0  0  0
 98 99  1  0  0  0  0
 99102  2  0  0  0  0
 99100  1  0  0  0  0
100101  2  0  0  0  0
102122  1  0  0  0  0
 94103  1  0  0  0  0
103113  2  0  0  0  0
104112  1  0  0  0  0
103104  1  0  0  0  0
104105  2  0  0  0  0
106107  2  0  0  0  0
105106  1  0  0  0  0
107111  1  0  0  0  0
108125  1  0  0  0  0
107108  1  0  0  0  0
109128  1  0  0  0  0
108109  1  0  0  0  0
108110  1  0  0  0  0
111130  1  0  0  0  0
111112  2  0  0  0  0
112131  1  0  0  0  0
 91113  1  0  0  0  0
 89115  1  0  0  0  0
 96119  1  0  0  0  0
 97120  1  0  0  0  0
 98121  1  0  0  0  0
105123  1  0  0  0  0
106124  1  0  0  0  0
109126  1  0  0  0  0
109127  1  0  0  0  0
110129  1  0  0  0  0
113132  1  0  0  0  0
133136  1  0  0  0  0
133135  1  0  0  0  0
133137  1  0  0  0  0
133134  1  0  0  0  0
138146  1  0  0  0  0
138139  1  0  0  0  0
139140  1  0  0  0  0
139142  1  0  0  0  0
140149  1  0  0  0  0
140148  1  0  0  0  0
141152  1  0  0  0  0
139141  1  0  0  0  0
142143  1  0  0  0  0
143144  2  0  0  0  0
110143  1  0  0  0  0
138145  1  0  0  0  0
138147  1  0  0  0  0
140150  1  0  0  0  0
141151  1  0  0  0  0
141153  1  0  0  0  0
M  END
> <atom.dprop.PartialCharge>
0.107910 -0.319110 0.123210 -0.201990 -0.083490 -0.071510 -0.048930 -0.084310 -0.150240 -0.070620 -0.136900 0.644950 -0.538100 -0.058510 0.007050 -0.039390 -0.111340 -0.122160 -0.095910 0.152040 -0.108950 -0.570310 -0.122160 -0.111340 -0.144620 0.045240 0.045240 0.045240 0.142900 0.140730 0.139510 0.140270 0.156460 0.160100 0.138630 0.136870 0.089290 0.044770 0.044770 0.044770 0.310940 0.136870 0.138630 0.157830 0.112270 -0.325110 0.124320 -0.205850 -0.085920 -0.071210 -0.042000 -0.090780 -0.141120 -0.075190 -0.142160 0.672260 -0.607990 -0.093280 0.010120 -0.044420 -0.110110 -0.121290 -0.090590 0.150860 -0.112940 -0.566630 -0.121290 -0.110110 -0.145190 0.045270 0.045270 0.045270 0.140380 0.137990 0.140420 0.138120 0.155000 0.140150 0.137950 0.136970 0.084890 0.045220 0.045220 0.045220 0.314530 0.136970 0.137950 0.157970 0.114520 -0.325480 0.153160 -0.191260 -0.080940 -0.075750 -0.038210 -0.093580 -0.143720 -0.076480 -0.143240 0.677600 -0.616050 -0.089470 0.002970 -0.030490 -0.118820 -0.115510 -0.112070 0.158760 -0.100930 -0.551200 -0.115510 -0.118820 -0.141100 0.043220 0.043220 0.043220 0.136370 0.136230 0.137600 0.135150 0.153750 0.145420 0.136850 0.135420 0.091060 0.046000 0.046000 0.046000 0.320600 0.135420 0.136850 0.147520 0.124690 -0.443390 0.053780 0.053780 0.053780 -0.113480 0.187840 -0.113480 -0.113480 -0.451800 0.753520 -0.599390 0.051290 0.051290 0.051290 0.051290 0.051290 0.051290 0.051290 0.051290 0.051290

$$$$
