pom_trimer.pdb
  -OEChem-09092515293D

153161  0     1  0  0  0  0  0999 V2000
   -2.9090   -5.6790   -0.6750 C   0  0  0  0  0  0  0  0  0  0  0  0
   -1.7680   -4.8390   -0.7820 O   0  0  0  0  0  0  0  0  0  0  0  0
   -1.9140   -3.5400   -0.3830 C   0  0  0  0  0  0  0  0  0  0  0  0
   -3.0630   -2.9650    0.1520 C   0  0  0  0  0  0  0  0  0  0  0  0
   -3.0560   -1.6240    0.5520 C   0  0  0  0  0  0  0  0  0  0  0  0
   -1.9050   -0.8280    0.4260 C   0  0  0  0  0  0  0  0  0  0  0  0
   -1.9140    0.5490    0.9530 C   0  0  0  0  0  0  0  0  0  0  0  0
   -0.9640    0.9430    1.9170 C   0  0  0  0  0  0  0  0  0  0  0  0
   -0.8060    2.2740    2.2670 C   0  0  0  0  0  0  0  0  0  0  0  0
   -1.6280    3.2350    1.6860 C   0  0  0  0  0  0  0  0  0  0  0  0
   -2.6940    2.8590    0.8690 C   0  0  0  0  0  0  0  0  0  0  0  0
   -3.6960    3.8520    0.3620 C   0  0  0  0  0  0  0  0  0  0  0  0
   -4.4560    3.5870   -0.5540 O   0  0  0  0  0  0  0  0  0  0  0  0
   -2.8130    1.5200    0.4740 C   0  0  0  0  0  0  0  0  0  0  0  0
   -0.7470   -1.4000   -0.1660 C   0  0  0  0  0  0  0  0  0  0  0  0
    0.5040   -0.6410   -0.3540 C   0  0  0  0  0  0  0  0  0  0  0  0
    1.6590   -1.0320    0.3240 C   0  0  0  0  0  0  0  0  0  0  0  0
    2.8230   -0.2760    0.2380 C   0  0  0  0  0  0  0  0  0  0  0  0
    2.9180    0.8330   -0.6100 C   0  0  0  0  0  0  0  0  0  0  0  0
    4.2220    1.5870   -0.7810 C   0  0  1  0  0  0  0  0  0  0  0  0
    4.6820    2.2510    0.5190 C   0  0  0  0  0  0  0  0  0  0  0  0
    5.3190    0.8240   -1.3930 N   0  0  0  0  0  0  0  0  0  0  0  0
    1.7560    1.2420   -1.2770 C   0  0  0  0  0  0  0  0  0  0  0  0
    0.5640    0.5200   -1.1460 C   0  0  0  0  0  0  0  0  0  0  0  0
   -0.7720   -2.7570   -0.5430 C   0  0  0  0  0  0  0  0  0  0  0  0
   -2.6220   -6.6740   -1.0260 H   0  0  0  0  0  0  0  0  0  0  0  0
   -3.2360   -5.7740    0.3660 H   0  0  0  0  0  0  0  0  0  0  0  0
   -3.7200   -5.3180   -1.3150 H   0  0  0  0  0  0  0  0  0  0  0  0
   -3.9760   -3.5330    0.2880 H   0  0  0  0  0  0  0  0  0  0  0  0
   -3.9580   -1.2060    0.9950 H   0  0  0  0  0  0  0  0  0  0  0  0
   -0.2780    0.2090    2.3420 H   0  0  0  0  0  0  0  0  0  0  0  0
   -0.0290    2.5710    2.9670 H   0  0  0  0  0  0  0  0  0  0  0  0
   -1.4080    4.2740    1.8920 H   0  0  0  0  0  0  0  0  0  0  0  0
   -3.5750    1.2320   -0.2500 H   0  0  0  0  0  0  0  0  0  0  0  0
    1.6660   -1.9260    0.9470 H   0  0  0  0  0  0  0  0  0  0  0  0
    3.6730   -0.5960    0.8320 H   0  0  0  0  0  0  0  0  0  0  0  0
    4.0400    2.3990   -1.4990 H   0  0  0  0  0  0  0  0  0  0  0  0
    5.5650    2.8740    0.3370 H   0  0  0  0  0  0  0  0  0  0  0  0
    4.9590    1.5120    1.2790 H   0  0  0  0  0  0  0  0  0  0  0  0
    3.8970    2.8890    0.9400 H   0  0  0  0  0  0  0  0  0  0  0  0
    5.9410    1.4330   -1.8960 H   0  0  0  0  0  0  0  0  0  0  0  0
    1.7570    2.1370   -1.8980 H   0  0  0  0  0  0  0  0  0  0  0  0
   -0.3270    0.8750   -1.6540 H   0  0  0  0  0  0  0  0  0  0  0  0
    0.1230   -3.2150   -0.9630 H   0  0  0  0  0  0  0  0  0  0  0  0
   10.9070   -4.7970    6.0840 C   0  0  0  0  0  0  0  0  0  0  0  0
   11.4150   -4.6430    4.7660 O   0  0  0  0  0  0  0  0  0  0  0  0
   10.7710   -3.7650    3.9400 C   0  0  0  0  0  0  0  0  0  0  0  0
    9.6620   -2.9890    4.2540 C   0  0  0  0  0  0  0  0  0  0  0  0
    9.1350   -2.0950    3.3080 C   0  0  0  0  0  0  0  0  0  0  0  0
    9.6970   -1.9580    2.0240 C   0  0  0  0  0  0  0  0  0  0  0  0
    9.1620   -0.9440    1.0840 C   0  0  0  0  0  0  0  0  0  0  0  0
    9.9790    0.0790    0.5710 C   0  0  0  0  0  0  0  0  0  0  0  0
    9.4950    1.0050   -0.3550 C   0  0  0  0  0  0  0  0  0  0  0  0
    8.1770    0.9300   -0.7960 C   0  0  0  0  0  0  0  0  0  0  0  0
    7.3450   -0.0860   -0.3200 C   0  0  0  0  0  0  0  0  0  0  0  0
    5.9180   -0.2350   -0.7430 C   0  0  0  0  0  0  0  0  0  0  0  0
    5.3530   -1.2860   -0.4600 O   0  0  0  0  0  0  0  0  0  0  0  0
    7.8390   -1.0030    0.6300 C   0  0  0  0  0  0  0  0  0  0  0  0
   10.7900   -2.7940    1.6870 C   0  0  0  0  0  0  0  0  0  0  0  0
   11.4200   -2.7570    0.3590 C   0  0  0  0  0  0  0  0  0  0  0  0
   12.7510   -2.3560    0.2430 C   0  0  0  0  0  0  0  0  0  0  0  0
   13.3350   -2.2160   -1.0090 C   0  0  0  0  0  0  0  0  0  0  0  0
   12.6600   -2.5740   -2.1790 C   0  0  0  0  0  0  0  0  0  0  0  0
   13.3410   -2.5150   -3.5280 C   0  0  1  0  0  0  0  0  0  0  0  0
   13.7390   -1.0880   -3.9200 C   0  0  0  0  0  0  0  0  0  0  0  0
   14.4710   -3.4380   -3.7080 N   0  0  0  0  0  0  0  0  0  0  0  0
   11.3190   -2.9680   -2.0690 C   0  0  0  0  0  0  0  0  0  0  0  0
   10.7050   -3.0490   -0.8140 C   0  0  0  0  0  0  0  0  0  0  0  0
   11.3180   -3.6670    2.6610 C   0  0  0  0  0  0  0  0  0  0  0  0
   11.5490   -5.5150    6.6050 H   0  0  0  0  0  0  0  0  0  0  0  0
   10.9470   -3.8540    6.6400 H   0  0  0  0  0  0  0  0  0  0  0  0
    9.8930   -5.2070    6.0690 H   0  0  0  0  0  0  0  0  0  0  0  0
    9.1870   -3.0430    5.2280 H   0  0  0  0  0  0  0  0  0  0  0  0
    8.2800   -1.4820    3.5910 H   0  0  0  0  0  0  0  0  0  0  0  0
   11.0240    0.1440    0.8720 H   0  0  0  0  0  0  0  0  0  0  0  0
   10.1560    1.7750   -0.7470 H   0  0  0  0  0  0  0  0  0  0  0  0
    7.8430    1.6680   -1.5140 H   0  0  0  0  0  0  0  0  0  0  0  0
    7.1840   -1.7900    1.0050 H   0  0  0  0  0  0  0  0  0  0  0  0
   13.3440   -2.1320    1.1260 H   0  0  0  0  0  0  0  0  0  0  0  0
   14.3540   -1.8410   -1.0440 H   0  0  0  0  0  0  0  0  0  0  0  0
   12.6100   -2.8510   -4.2780 H   0  0  0  0  0  0  0  0  0  0  0  0
   14.1130   -1.0680   -4.9500 H   0  0  0  0  0  0  0  0  0  0  0  0
   14.5320   -0.6930   -3.2780 H   0  0  0  0  0  0  0  0  0  0  0  0
   12.8840   -0.4050   -3.8590 H   0  0  0  0  0  0  0  0  0  0  0  0
   14.5700   -3.6920   -4.6740 H   0  0  0  0  0  0  0  0  0  0  0  0
   10.7300   -3.2000   -2.9530 H   0  0  0  0  0  0  0  0  0  0  0  0
    9.6560   -3.3320   -0.7560 H   0  0  0  0  0  0  0  0  0  0  0  0
   12.1820   -4.2850    2.4170 H   0  0  0  0  0  0  0  0  0  0  0  0
   23.7310    1.0190   -0.1240 C   0  0  0  0  0  0  0  0  0  0  0  0
   23.7620   -0.1600   -0.9170 O   0  0  0  0  0  0  0  0  0  0  0  0
   22.5910   -0.5530   -1.5050 C   0  0  0  0  0  0  0  0  0  0  0  0
   21.3680    0.1000   -1.4310 C   0  0  0  0  0  0  0  0  0  0  0  0
   20.2570   -0.4080   -2.1190 C   0  0  0  0  0  0  0  0  0  0  0  0
   20.3390   -1.5810   -2.8960 C   0  0  0  0  0  0  0  0  0  0  0  0
   19.1630   -2.0340   -3.6750 C   0  0  0  0  0  0  0  0  0  0  0  0
   19.2250   -2.1680   -5.0720 C   0  0  0  0  0  0  0  0  0  0  0  0
   18.1400   -2.6590   -5.8050 C   0  0  0  0  0  0  0  0  0  0  0  0
   16.9630   -3.0140   -5.1610 C   0  0  0  0  0  0  0  0  0  0  0  0
   16.8760   -2.9070   -3.7730 C   0  0  0  0  0  0  0  0  0  0  0  0
   15.6560   -3.2820   -3.0040 C   0  0  0  0  0  0  0  0  0  0  0  0
   15.7590   -3.4110   -1.7910 O   0  0  0  0  0  0  0  0  0  0  0  0
   17.9680   -2.3990   -3.0410 C   0  0  0  0  0  0  0  0  0  0  0  0
   21.5740   -2.2750   -2.9300 C   0  0  0  0  0  0  0  0  0  0  0  0
   21.7530   -3.5260   -3.6890 C   0  0  0  0  0  0  0  0  0  0  0  0
   22.6420   -3.5550   -4.7630 C   0  0  0  0  0  0  0  0  0  0  0  0
   22.7580   -4.6920   -5.5560 C   0  0  0  0  0  0  0  0  0  0  0  0
   22.0980   -5.8860   -5.2430 C   0  0  0  0  0  0  0  0  0  0  0  0
   22.3040   -7.1450   -6.0690 C   0  0  1  0  0  0  0  0  0  0  0  0
   21.7840   -6.9640   -7.4990 C   0  0  0  0  0  0  0  0  0  0  0  0
   23.6620   -7.7130   -6.1010 N   0  0  0  0  0  0  0  0  0  0  0  0
   21.1840   -5.8530   -4.1790 C   0  0  0  0  0  0  0  0  0  0  0  0
   21.0080   -4.6850   -3.4200 C   0  0  0  0  0  0  0  0  0  0  0  0
   22.6840   -1.7320   -2.2480 C   0  0  0  0  0  0  0  0  0  0  0  0
   24.7350    1.1730    0.2830 H   0  0  0  0  0  0  0  0  0  0  0  0
   23.4790    1.8960   -0.7280 H   0  0  0  0  0  0  0  0  0  0  0  0
   23.0430    0.9080    0.7210 H   0  0  0  0  0  0  0  0  0  0  0  0
   21.2420    1.0130   -0.8570 H   0  0  0  0  0  0  0  0  0  0  0  0
   19.3160    0.1370   -2.0620 H   0  0  0  0  0  0  0  0  0  0  0  0
   20.1450   -1.9240   -5.6020 H   0  0  0  0  0  0  0  0  0  0  0  0
   18.2290   -2.7690   -6.8840 H   0  0  0  0  0  0  0  0  0  0  0  0
   16.1510   -3.3880   -5.7710 H   0  0  0  0  0  0  0  0  0  0  0  0
   17.8940   -2.3100   -1.9570 H   0  0  0  0  0  0  0  0  0  0  0  0
   23.2400   -2.6830   -5.0120 H   0  0  0  0  0  0  0  0  0  0  0  0
   23.4020   -4.6210   -6.4260 H   0  0  0  0  0  0  0  0  0  0  0  0
   21.7020   -7.9430   -5.6100 H   0  0  0  0  0  0  0  0  0  0  0  0
   21.8270   -7.9160   -8.0420 H   0  0  0  0  0  0  0  0  0  0  0  0
   22.3910   -6.2450   -8.0600 H   0  0  0  0  0  0  0  0  0  0  0  0
   20.7470   -6.6140   -7.5090 H   0  0  0  0  0  0  0  0  0  0  0  0
   23.6700   -8.6520   -6.4690 H   0  0  0  0  0  0  0  0  0  0  0  0
   20.5770   -6.7230   -3.9350 H   0  0  0  0  0  0  0  0  0  0  0  0
   20.2680   -4.6800   -2.6200 H   0  0  0  0  0  0  0  0  0  0  0  0
   23.6460   -2.2400   -2.2970 H   0  0  0  0  0  0  0  0  0  0  0  0
   -3.8430    5.2630    2.3170 C   0  0  0  0  0  0  0  0  0  0  0  0
   -3.6070    5.0970    0.9070 O   0  0  0  0  0  0  0  0  0  0  0  0
   -4.6600    4.6290    2.6710 H   0  0  0  0  0  0  0  0  0  0  0  0
   -4.1000    6.3130    2.4830 H   0  0  0  0  0  0  0  0  0  0  0  0
   -2.9440    5.0770    2.9030 H   0  0  0  0  0  0  0  0  0  0  0  0
   26.6420   -7.9730   -9.5730 C   0  0  0  0  0  0  0  0  0  0  0  0
   26.1810   -6.9380   -8.5370 C   0  0  0  0  0  0  0  0  0  0  0  0
   27.4190   -6.4330   -7.7820 C   0  0  0  0  0  0  0  0  0  0  0  0
   25.4840   -5.7890   -9.2850 C   0  0  0  0  0  0  0  0  0  0  0  0
   25.2400   -7.6490   -7.6780 O   0  0  0  0  0  0  0  0  0  0  0  0
   24.7280   -7.0090   -6.5970 C   0  0  0  0  0  0  0  0  0  0  0  0
   25.1370   -5.9430   -6.1760 O   0  0  0  0  0  0  0  0  0  0  0  0
   27.3570   -7.5430  -10.2820 H   0  0  0  0  0  0  0  0  0  0  0  0
   27.1160   -8.8280   -9.0790 H   0  0  0  0  0  0  0  0  0  0  0  0
   25.7910   -8.3690  -10.1390 H   0  0  0  0  0  0  0  0  0  0  0  0
   27.8450   -7.2260   -7.1600 H   0  0  0  0  0  0  0  0  0  0  0  0
   27.1910   -5.5940   -7.1180 H   0  0  0  0  0  0  0  0  0  0  0  0
   28.1860   -6.0720   -8.4750 H   0  0  0  0  0  0  0  0  0  0  0  0
   24.5690   -6.1340   -9.7780 H   0  0  0  0  0  0  0  0  0  0  0  0
   25.1910   -4.9790   -8.6090 H   0  0  0  0  0  0  0  0  0  0  0  0
   26.1430   -5.3570  -10.0490 H   0  0  0  0  0  0  0  0  0  0  0  0
  1 27  1  0  0  0  0
  1  2  1  0  0  0  0
  2  3  1  0  0  0  0
  3  4  2  0  0  0  0
  4 29  1  0  0  0  0
  4  5  1  0  0  0  0
  5 30  1  0  0  0  0
  5  6  2  0  0  0  0
  6  7  1  0  0  0  0
  7  8  2  0  0  0  0
  8  9  1  0  0  0  0
  8 31  1  0  0  0  0
  9 32  1  0  0  0  0
 10 33  1  0  0  0  0
  9 10  2  0  0  0  0
 10 11  1  0  0  0  0
 11 12  1  0  0  0  0
 12134  1  0  0  0  0
 12 13  2  0  0  0  0
 11 14  2  0  0  0  0
  7 14  1  0  0  0  0
  6 15  1  0  0  0  0
 15 16  1  0  0  0  0
 16 17  2  0  0  0  0
 17 35  1  0  0  0  0
 17 18  1  0  0  0  0
 18 36  1  0  0  0  0
 18 19  2  0  0  0  0
 20 37  1  0  0  0  0
 19 20  1  0  0  0  0
 20 21  1  0  0  0  0
 21 40  1  0  0  0  0
 21 39  1  0  0  0  0
 20 22  1  0  0  0  0
 22 56  1  0  0  0  0
 23 24  2  0  0  0  0
 19 23  1  0  0  0  0
 16 24  1  0  0  0  0
  3 25  1  0  0  0  0
 15 25  2  0  0  0  0
  1 26  1  0  0  0  0
  1 28  1  0  0  0  0
 14 34  1  0  0  0  0
 21 38  1  0  0  0  0
 22 41  1  0  0  0  0
 23 42  1  0  0  0  0
 24 43  1  0  0  0  0
 25 44  1  0  0  0  0
 45 70  1  0  0  0  0
 45 71  1  0  0  0  0
 45 46  1  0  0  0  0
 47 48  2  0  0  0  0
 46 47  1  0  0  0  0
 48 73  1  0  0  0  0
 49 74  1  0  0  0  0
 48 49  1  0  0  0  0
 49 50  2  0  0  0  0
 50 51  1  0  0  0  0
 52 75  1  0  0  0  0
 51 52  2  0  0  0  0
 52 53  1  0  0  0  0
 53 54  2  0  0  0  0
 54 55  1  0  0  0  0
 55 58  2  0  0  0  0
 56 57  2  0  0  0  0
 55 56  1  0  0  0  0
 58 78  1  0  0  0  0
 51 58  1  0  0  0  0
 50 59  1  0  0  0  0
 59 69  2  0  0  0  0
 59 60  1  0  0  0  0
 60 61  2  0  0  0  0
 61 79  1  0  0  0  0
 61 62  1  0  0  0  0
 63 67  1  0  0  0  0
 62 63  2  0  0  0  0
 64 81  1  0  0  0  0
 63 64  1  0  0  0  0
 65 84  1  0  0  0  0
 64 65  1  0  0  0  0
 65 83  1  0  0  0  0
 64 66  1  0  0  0  0
 66100  1  0  0  0  0
 67 68  2  0  0  0  0
 68 87  1  0  0  0  0
 60 68  1  0  0  0  0
 47 69  1  0  0  0  0
 45 72  1  0  0  0  0
 53 76  1  0  0  0  0
 54 77  1  0  0  0  0
 62 80  1  0  0  0  0
 65 82  1  0  0  0  0
 66 85  1  0  0  0  0
 67 86  1  0  0  0  0
 69 88  1  0  0  0  0
 89114  1  0  0  0  0
 89116  1  0  0  0  0
 89 90  1  0  0  0  0
 91 92  2  0  0  0  0
 90 91  1  0  0  0  0
 92117  1  0  0  0  0
 93118  1  0  0  0  0
 92 93  1  0  0  0  0
 93 94  2  0  0  0  0
 95102  1  0  0  0  0
 94 95  1  0  0  0  0
 95 96  2  0  0  0  0
 97 98  2  0  0  0  0
 96 97  1  0  0  0  0
 98 99  1  0  0  0  0
 99102  2  0  0  0  0
 99100  1  0  0  0  0
100101  2  0  0  0  0
102122  1  0  0  0  0
 94103  1  0  0  0  0
103113  2  0  0  0  0
104112  1  0  0  0  0
103104  1  0  0  0  0
104105  2  0  0  0  0
106107  2  0  0  0  0
105106  1  0  0  0  0
107111  1  0  0  0  0
108125  1  0  0  0  0
107108  1  0  0  0  0
108109  1  0  0  0  0
108110  1  0  0  0  0
111130  1  0  0  0  0
111112  2  0  0  0  0
112131  1  0  0  0  0
 91113  1  0  0  0  0
 89115  1  0  0  0  0
 96119  1  0  0  0  0
 97120  1  0  0  0  0
 98121  1  0  0  0  0
105123  1  0  0  0  0
106124  1  0  0  0  0
109126  1  0  0  0  0
109127  1  0  0  0  0
109128  1  0  0  0  0
110129  1  0  0  0  0
113132  1  0  0  0  0
133136  1  0  0  0  0
133135  1  0  0  0  0
133137  1  0  0  0  0
133134  1  0  0  0  0
138146  1  0  0  0  0
138139  1  0  0  0  0
139140  1  0  0  0  0
139142  1  0  0  0  0
140148  1  0  0  0  0
140149  1  0  0  0  0
141152  1  0  0  0  0
139141  1  0  0  0  0
142143  1  0  0  0  0
143144  2  0  0  0  0
110143  1  0  0  0  0
138145  1  0  0  0  0
138147  1  0  0  0  0
140150  1  0  0  0  0
141151  1  0  0  0  0
141153  1  0  0  0  0
M  END
> <atom.dprop.PartialCharge>
0.108040 -0.319020 0.123920 -0.202540 -0.082920 -0.071600 -0.049050 -0.083910 -0.150230 -0.070380 -0.137190 0.645230 -0.537950 -0.058290 0.006630 -0.039960 -0.111490 -0.121850 -0.095060 0.151760 -0.108730 -0.570080 -0.121850 -0.111490 -0.144980 0.045500 0.045500 0.045500 0.142170 0.140770 0.139460 0.140170 0.157030 0.160340 0.138840 0.136680 0.088660 0.044640 0.044640 0.044640 0.310660 0.136680 0.138840 0.157820 0.111960 -0.324440 0.124600 -0.205900 -0.086100 -0.070930 -0.042320 -0.090730 -0.140930 -0.074910 -0.142090 0.672180 -0.608000 -0.092710 0.010080 -0.044930 -0.110600 -0.121260 -0.090610 0.151720 -0.112700 -0.568130 -0.121260 -0.110600 -0.145330 0.045240 0.045240 0.045240 0.140050 0.138230 0.140190 0.138190 0.155110 0.139860 0.137580 0.137440 0.084750 0.045030 0.045030 0.045030 0.314170 0.137440 0.137580 0.158520 0.114670 -0.325850 0.153410 -0.190730 -0.080950 -0.076170 -0.037970 -0.093830 -0.143570 -0.076960 -0.142460 0.677400 -0.614870 -0.089740 0.002880 -0.030390 -0.118710 -0.115780 -0.112700 0.158340 -0.101060 -0.550950 -0.115780 -0.118710 -0.141120 0.043200 0.043200 0.043200 0.136550 0.136140 0.137410 0.135560 0.153740 0.145370 0.136950 0.135560 0.091340 0.045940 0.045940 0.045940 0.322090 0.135560 0.136950 0.147830 0.125120 -0.444520 0.053500 0.053500 0.053500 -0.113440 0.185980 -0.113440 -0.113440 -0.452400 0.753350 -0.598350 0.051360 0.051360 0.051360 0.051360 0.051360 0.051360 0.051360 0.051360 0.051360

$$$$
