pom_trimer.pdb
  -OEChem-10012409553D

153161  0     1  0  0  0  0  0999 V2000
   -2.9370   -5.6150   -0.8090 C   0  0  0  0  0  0  0  0  0  0  0  0
   -1.8760   -4.7250   -1.1490 O   0  0  0  0  0  0  0  0  0  0  0  0
   -2.0130   -3.4170   -0.7640 C   0  0  0  0  0  0  0  0  0  0  0  0
   -3.1610   -2.8510   -0.2110 C   0  0  0  0  0  0  0  0  0  0  0  0
   -3.1210   -1.5560    0.3240 C   0  0  0  0  0  0  0  0  0  0  0  0
   -1.9420   -0.7850    0.3010 C   0  0  0  0  0  0  0  0  0  0  0  0
   -1.9290    0.5600    0.9180 C   0  0  0  0  0  0  0  0  0  0  0  0
   -0.9680    0.9150    1.8780 C   0  0  0  0  0  0  0  0  0  0  0  0
   -0.7770    2.2430    2.2510 C   0  0  0  0  0  0  0  0  0  0  0  0
   -1.5940    3.2310    1.7100 C   0  0  0  0  0  0  0  0  0  0  0  0
   -2.6740    2.8880    0.8850 C   0  0  0  0  0  0  0  0  0  0  0  0
   -3.6390    3.8990    0.3840 C   0  0  0  0  0  0  0  0  0  0  0  0
   -4.4320    3.6560   -0.5370 O   0  0  0  0  0  0  0  0  0  0  0  0
   -2.8200    1.5540    0.4720 C   0  0  0  0  0  0  0  0  0  0  0  0
   -0.7860   -1.3350   -0.3250 C   0  0  0  0  0  0  0  0  0  0  0  0
    0.4780   -0.5770   -0.4080 C   0  0  0  0  0  0  0  0  0  0  0  0
    1.5790   -0.9210    0.3830 C   0  0  0  0  0  0  0  0  0  0  0  0
    2.7430   -0.1470    0.3710 C   0  0  0  0  0  0  0  0  0  0  0  0
    2.8960    0.9060   -0.5380 C   0  0  0  0  0  0  0  0  0  0  0  0
    4.2250    1.6100   -0.7350 C   0  0  1  0  0  0  0  0  0  0  0  0
    4.7310    2.2710    0.5490 C   0  0  0  0  0  0  0  0  0  0  0  0
    5.2640    0.8000   -1.4060 N   0  0  0  0  0  0  0  0  0  0  0  0
    1.7780    1.2830   -1.2960 C   0  0  0  0  0  0  0  0  0  0  0  0
    0.5820    0.5610   -1.2160 C   0  0  0  0  0  0  0  0  0  0  0  0
   -0.8440   -2.6470   -0.8450 C   0  0  0  0  0  0  0  0  0  0  0  0
   -2.6290   -6.6290   -1.0840 H   0  0  0  0  0  0  0  0  0  0  0  0
   -3.1450   -5.6220    0.2680 H   0  0  0  0  0  0  0  0  0  0  0  0
   -3.8390   -5.3710   -1.3770 H   0  0  0  0  0  0  0  0  0  0  0  0
   -4.0790   -3.4180   -0.0980 H   0  0  0  0  0  0  0  0  0  0  0  0
   -4.0110   -1.1690    0.8150 H   0  0  0  0  0  0  0  0  0  0  0  0
   -0.2950    0.1650    2.2880 H   0  0  0  0  0  0  0  0  0  0  0  0
    0.0270    2.5150    2.9270 H   0  0  0  0  0  0  0  0  0  0  0  0
   -1.3660    4.2660    1.9430 H   0  0  0  0  0  0  0  0  0  0  0  0
   -3.5940    1.2960   -0.2450 H   0  0  0  0  0  0  0  0  0  0  0  0
    1.5460   -1.8030    1.0150 H   0  0  0  0  0  0  0  0  0  0  0  0
    3.5640   -0.4380    1.0220 H   0  0  0  0  0  0  0  0  0  0  0  0
    4.0530    2.4280   -1.4490 H   0  0  0  0  0  0  0  0  0  0  0  0
    5.6210    2.8770    0.3430 H   0  0  0  0  0  0  0  0  0  0  0  0
    5.0020    1.5360    1.3130 H   0  0  0  0  0  0  0  0  0  0  0  0
    3.9660    2.9310    0.9730 H   0  0  0  0  0  0  0  0  0  0  0  0
    5.9830    1.4400   -1.7210 H   0  0  0  0  0  0  0  0  0  0  0  0
    1.8200    2.1450   -1.9590 H   0  0  0  0  0  0  0  0  0  0  0  0
   -0.2790    0.8960   -1.7910 H   0  0  0  0  0  0  0  0  0  0  0  0
    0.0570   -3.1050   -1.2490 H   0  0  0  0  0  0  0  0  0  0  0  0
    8.4060   -7.9910    4.1970 C   0  0  0  0  0  0  0  0  0  0  0  0
    7.1420   -7.3680    4.4170 O   0  0  0  0  0  0  0  0  0  0  0  0
    6.7820   -6.3690    3.5540 C   0  0  0  0  0  0  0  0  0  0  0  0
    7.5960   -5.8130    2.5710 C   0  0  0  0  0  0  0  0  0  0  0  0
    7.0520   -4.9350    1.6240 C   0  0  0  0  0  0  0  0  0  0  0  0
    5.6910   -4.5650    1.6380 C   0  0  0  0  0  0  0  0  0  0  0  0
    5.1860   -3.6810    0.5610 C   0  0  0  0  0  0  0  0  0  0  0  0
    4.1000   -4.0370   -0.2610 C   0  0  0  0  0  0  0  0  0  0  0  0
    3.6550   -3.1920   -1.2820 C   0  0  0  0  0  0  0  0  0  0  0  0
    4.2920   -1.9730   -1.5090 C   0  0  0  0  0  0  0  0  0  0  0  0
    5.3340   -1.5680   -0.6700 C   0  0  0  0  0  0  0  0  0  0  0  0
    5.9440   -0.2150   -0.7610 C   0  0  0  0  0  0  0  0  0  0  0  0
    7.0740   -0.0080   -0.3270 O   0  0  0  0  0  0  0  0  0  0  0  0
    5.7930   -2.4350    0.3330 C   0  0  0  0  0  0  0  0  0  0  0  0
    4.8740   -5.0790    2.6770 C   0  0  0  0  0  0  0  0  0  0  0  0
    3.4540   -4.7330    2.8010 C   0  0  0  0  0  0  0  0  0  0  0  0
    2.4530   -5.6590    2.5020 C   0  0  0  0  0  0  0  0  0  0  0  0
    1.1090   -5.3210    2.6230 C   0  0  0  0  0  0  0  0  0  0  0  0
    0.7220   -4.1010    3.1980 C   0  0  0  0  0  0  0  0  0  0  0  0
   -0.7250   -3.7840    3.5350 C   0  0  1  0  0  0  0  0  0  0  0  0
   -1.5770   -3.8960    2.3000 C   0  0  0  0  0  0  0  0  0  0  0  0
   -1.3350   -4.5210    4.6460 N   0  0  0  0  0  0  0  0  0  0  0  0
    1.7190   -3.1440    3.4240 C   0  0  0  0  0  0  0  0  0  0  0  0
    3.0630   -3.4470    3.2050 C   0  0  0  0  0  0  0  0  0  0  0  0
    5.4400   -5.9740    3.6210 C   0  0  0  0  0  0  0  0  0  0  0  0
    8.4920   -8.8350    4.8880 H   0  0  0  0  0  0  0  0  0  0  0  0
    8.5000   -8.3940    3.1820 H   0  0  0  0  0  0  0  0  0  0  0  0
    9.2190   -7.2930    4.4140 H   0  0  0  0  0  0  0  0  0  0  0  0
    8.6340   -6.1050    2.4550 H   0  0  0  0  0  0  0  0  0  0  0  0
    7.6980   -4.5770    0.8230 H   0  0  0  0  0  0  0  0  0  0  0  0
    3.5740   -4.9770   -0.1050 H   0  0  0  0  0  0  0  0  0  0  0  0
    2.7840   -3.4640   -1.8750 H   0  0  0  0  0  0  0  0  0  0  0  0
    3.9160   -1.3110   -2.2850 H   0  0  0  0  0  0  0  0  0  0  0  0
    6.6160   -2.1170    0.9720 H   0  0  0  0  0  0  0  0  0  0  0  0
    2.7140   -6.6710    2.1890 H   0  0  0  0  0  0  0  0  0  0  0  0
    0.3660   -6.0620    2.3370 H   0  0  0  0  0  0  0  0  0  0  0  0
   -0.7690   -2.7340    3.8550 H   0  0  0  0  0  0  0  0  0  0  0  0
   -2.5980   -3.5470    2.4830 H   0  0  0  0  0  0  0  0  0  0  0  0
   -1.6330   -4.9130    1.9010 H   0  0  0  0  0  0  0  0  0  0  0  0
   -1.1030   -3.2690    1.5590 H   0  0  0  0  0  0  0  0  0  0  0  0
   -2.1950   -4.0370    4.8730 H   0  0  0  0  0  0  0  0  0  0  0  0
    1.4590   -2.1410    3.7550 H   0  0  0  0  0  0  0  0  0  0  0  0
    3.8180   -2.6830    3.3660 H   0  0  0  0  0  0  0  0  0  0  0  0
    4.7980   -6.4340    4.3730 H   0  0  0  0  0  0  0  0  0  0  0  0
   -1.8030  -15.3340    3.4960 C   0  0  0  0  0  0  0  0  0  0  0  0
   -0.7250  -14.5970    2.9350 O   0  0  0  0  0  0  0  0  0  0  0  0
   -0.6570  -13.2690    3.2470 C   0  0  0  0  0  0  0  0  0  0  0  0
   -1.4960  -12.5880    4.1180 C   0  0  0  0  0  0  0  0  0  0  0  0
   -1.2640  -11.2360    4.4080 C   0  0  0  0  0  0  0  0  0  0  0  0
   -0.2000  -10.5340    3.8210 C   0  0  0  0  0  0  0  0  0  0  0  0
    0.0770   -9.1550    4.2830 C   0  0  0  0  0  0  0  0  0  0  0  0
    1.3100   -8.8150    4.8690 C   0  0  0  0  0  0  0  0  0  0  0  0
    1.5440   -7.5360    5.3730 C   0  0  0  0  0  0  0  0  0  0  0  0
    0.5340   -6.5840    5.3220 C   0  0  0  0  0  0  0  0  0  0  0  0
   -0.6740   -6.8830    4.6840 C   0  0  0  0  0  0  0  0  0  0  0  0
   -1.7030   -5.8400    4.4640 C   0  0  0  0  0  0  0  0  0  0  0  0
   -2.8530   -6.1260    4.1490 O   0  0  0  0  0  0  0  0  0  0  0  0
   -0.9050   -8.1680    4.1800 C   0  0  0  0  0  0  0  0  0  0  0  0
    0.6090  -11.1990    2.8700 C   0  0  0  0  0  0  0  0  0  0  0  0
    1.7320  -10.5500    2.2000 C   0  0  0  0  0  0  0  0  0  0  0  0
    3.0170  -10.9280    2.5640 C   0  0  0  0  0  0  0  0  0  0  0  0
    4.1120  -10.2990    1.9980 C   0  0  0  0  0  0  0  0  0  0  0  0
    3.9980   -9.4430    0.9060 C   0  0  0  0  0  0  0  0  0  0  0  0
    5.2340   -8.9540    0.1730 C   0  0  1  0  0  0  0  0  0  0  0  0
    6.1570   -8.2390    1.1290 C   0  0  0  0  0  0  0  0  0  0  0  0
    6.0120   -9.9350   -0.5920 N   0  0  0  0  0  0  0  0  0  0  0  0
    2.7120   -8.9860    0.6000 C   0  0  0  0  0  0  0  0  0  0  0  0
    1.5920   -9.5140    1.2650 C   0  0  0  0  0  0  0  0  0  0  0  0
    0.3750  -12.5720    2.6250 C   0  0  0  0  0  0  0  0  0  0  0  0
   -1.7190  -16.3680    3.1470 H   0  0  0  0  0  0  0  0  0  0  0  0
   -1.7500  -15.3480    4.5890 H   0  0  0  0  0  0  0  0  0  0  0  0
   -2.7640  -14.9400    3.1500 H   0  0  0  0  0  0  0  0  0  0  0  0
   -2.3200  -13.0760    4.6250 H   0  0  0  0  0  0  0  0  0  0  0  0
   -1.9060  -10.7410    5.1320 H   0  0  0  0  0  0  0  0  0  0  0  0
    2.1120   -9.5470    4.9360 H   0  0  0  0  0  0  0  0  0  0  0  0
    2.5160   -7.2730    5.7790 H   0  0  0  0  0  0  0  0  0  0  0  0
    0.7320   -5.5830    5.6970 H   0  0  0  0  0  0  0  0  0  0  0  0
   -1.8490   -8.3890    3.6830 H   0  0  0  0  0  0  0  0  0  0  0  0
    3.1740  -11.6930    3.3190 H   0  0  0  0  0  0  0  0  0  0  0  0
    5.0820  -10.5040    2.4270 H   0  0  0  0  0  0  0  0  0  0  0  0
    4.9070   -8.2130   -0.5690 H   0  0  0  0  0  0  0  0  0  0  0  0
    6.9670   -7.7310    0.5970 H   0  0  0  0  0  0  0  0  0  0  0  0
    6.6170   -8.9070    1.8640 H   0  0  0  0  0  0  0  0  0  0  0  0
    5.5530   -7.5170    1.6600 H   0  0  0  0  0  0  0  0  0  0  0  0
    6.5530   -9.4790   -1.3140 H   0  0  0  0  0  0  0  0  0  0  0  0
    2.5680   -8.1870   -0.1240 H   0  0  0  0  0  0  0  0  0  0  0  0
    0.6050   -9.1120    1.0450 H   0  0  0  0  0  0  0  0  0  0  0  0
    1.0360  -13.1130    1.9440 H   0  0  0  0  0  0  0  0  0  0  0  0
   -3.8640    5.2860    2.3040 C   0  0  0  0  0  0  0  0  0  0  0  0
   -3.5060    5.1340    0.9200 O   0  0  0  0  0  0  0  0  0  0  0  0
   -4.7300    4.6730    2.5690 H   0  0  0  0  0  0  0  0  0  0  0  0
   -4.1020    6.3390    2.4690 H   0  0  0  0  0  0  0  0  0  0  0  0
   -3.0230    5.0480    2.9580 H   0  0  0  0  0  0  0  0  0  0  0  0
    5.7850  -13.1430    2.7260 C   0  0  0  0  0  0  0  0  0  0  0  0
    6.8770  -12.5340    1.8260 C   0  0  0  0  0  0  0  0  0  0  0  0
    7.8690  -11.8000    2.7340 C   0  0  0  0  0  0  0  0  0  0  0  0
    7.5080  -13.6650    1.0240 C   0  0  0  0  0  0  0  0  0  0  0  0
    6.2040  -11.6110    0.9310 O   0  0  0  0  0  0  0  0  0  0  0  0
    6.8360  -10.8570    0.0120 C   0  0  0  0  0  0  0  0  0  0  0  0
    8.0200  -10.9340   -0.2860 O   0  0  0  0  0  0  0  0  0  0  0  0
    6.1540  -13.9830    3.3140 H   0  0  0  0  0  0  0  0  0  0  0  0
    5.4100  -12.4050    3.4510 H   0  0  0  0  0  0  0  0  0  0  0  0
    4.9200  -13.4700    2.1370 H   0  0  0  0  0  0  0  0  0  0  0  0
    7.3820  -10.9610    3.2460 H   0  0  0  0  0  0  0  0  0  0  0  0
    8.7080  -11.3780    2.1750 H   0  0  0  0  0  0  0  0  0  0  0  0
    8.2730  -12.4710    3.5020 H   0  0  0  0  0  0  0  0  0  0  0  0
    6.7750  -14.0860    0.3270 H   0  0  0  0  0  0  0  0  0  0  0  0
    8.3520  -13.3130    0.4250 H   0  0  0  0  0  0  0  0  0  0  0  0
    7.8680  -14.4640    1.6790 H   0  0  0  0  0  0  0  0  0  0  0  0
  1 27  1  0  0  0  0
  1  2  1  0  0  0  0
  2  3  1  0  0  0  0
  3  4  2  0  0  0  0
  4 29  1  0  0  0  0
  4  5  1  0  0  0  0
  5 30  1  0  0  0  0
  5  6  2  0  0  0  0
  6  7  1  0  0  0  0
  7  8  2  0  0  0  0
  8  9  1  0  0  0  0
  8 31  1  0  0  0  0
  9 32  1  0  0  0  0
 10 33  1  0  0  0  0
  9 10  2  0  0  0  0
 10 11  1  0  0  0  0
 11 12  1  0  0  0  0
 12134  1  0  0  0  0
 12 13  2  0  0  0  0
 11 14  2  0  0  0  0
  7 14  1  0  0  0  0
  6 15  1  0  0  0  0
 15 16  1  0  0  0  0
 16 17  2  0  0  0  0
 17 35  1  0  0  0  0
 17 18  1  0  0  0  0
 18 36  1  0  0  0  0
 18 19  2  0  0  0  0
 20 37  1  0  0  0  0
 19 20  1  0  0  0  0
 20 21  1  0  0  0  0
 21 40  1  0  0  0  0
 21 39  1  0  0  0  0
 22 56  1  0  0  0  0
 20 22  1  0  0  0  0
 23 24  2  0  0  0  0
 19 23  1  0  0  0  0
 16 24  1  0  0  0  0
  3 25  1  0  0  0  0
 15 25  2  0  0  0  0
  1 26  1  0  0  0  0
  1 28  1  0  0  0  0
 14 34  1  0  0  0  0
 21 38  1  0  0  0  0
 22 41  1  0  0  0  0
 23 42  1  0  0  0  0
 24 43  1  0  0  0  0
 25 44  1  0  0  0  0
 45 72  1  0  0  0  0
 45 46  1  0  0  0  0
 45 70  1  0  0  0  0
 47 69  2  0  0  0  0
 46 47  1  0  0  0  0
 47 48  1  0  0  0  0
 49 50  1  0  0  0  0
 48 49  2  0  0  0  0
 50 59  2  0  0  0  0
 50 51  1  0  0  0  0
 52 75  1  0  0  0  0
 51 52  2  0  0  0  0
 52 53  1  0  0  0  0
 53 54  2  0  0  0  0
 54 55  1  0  0  0  0
 55 58  2  0  0  0  0
 55 56  1  0  0  0  0
 56 57  2  0  0  0  0
 51 58  1  0  0  0  0
 58 78  1  0  0  0  0
 59 60  1  0  0  0  0
 59 69  1  0  0  0  0
 60 68  2  0  0  0  0
 61 62  2  0  0  0  0
 60 61  1  0  0  0  0
 62 63  1  0  0  0  0
 63 67  2  0  0  0  0
 63 64  1  0  0  0  0
 64 81  1  0  0  0  0
 64 66  1  0  0  0  0
 65 82  1  0  0  0  0
 64 65  1  0  0  0  0
 66 85  1  0  0  0  0
 67 86  1  0  0  0  0
 68 87  1  0  0  0  0
 67 68  1  0  0  0  0
 69 88  1  0  0  0  0
 45 71  1  0  0  0  0
 48 73  1  0  0  0  0
 49 74  1  0  0  0  0
 53 76  1  0  0  0  0
 54 77  1  0  0  0  0
 61 79  1  0  0  0  0
 62 80  1  0  0  0  0
 65 83  1  0  0  0  0
 65 84  1  0  0  0  0
 89115  1  0  0  0  0
 90 91  1  0  0  0  0
 89 90  1  0  0  0  0
 91 92  2  0  0  0  0
 92 93  1  0  0  0  0
 92117  1  0  0  0  0
 93118  1  0  0  0  0
 94 95  1  0  0  0  0
 93 94  2  0  0  0  0
 95 96  2  0  0  0  0
 96119  1  0  0  0  0
 96 97  1  0  0  0  0
 97120  1  0  0  0  0
 97 98  2  0  0  0  0
 98121  1  0  0  0  0
 98 99  1  0  0  0  0
 66100  1  0  0  0  0
 99100  1  0  0  0  0
100101  2  0  0  0  0
 95102  1  0  0  0  0
 99102  2  0  0  0  0
 94103  1  0  0  0  0
104105  2  0  0  0  0
103104  1  0  0  0  0
105123  1  0  0  0  0
106124  1  0  0  0  0
105106  1  0  0  0  0
106107  2  0  0  0  0
108125  1  0  0  0  0
107108  1  0  0  0  0
108109  1  0  0  0  0
109128  1  0  0  0  0
109127  1  0  0  0  0
110143  1  0  0  0  0
108110  1  0  0  0  0
107111  1  0  0  0  0
111112  2  0  0  0  0
104112  1  0  0  0  0
103113  2  0  0  0  0
 91113  1  0  0  0  0
 89114  1  0  0  0  0
 89116  1  0  0  0  0
102122  1  0  0  0  0
109126  1  0  0  0  0
110129  1  0  0  0  0
111130  1  0  0  0  0
112131  1  0  0  0  0
113132  1  0  0  0  0
133136  1  0  0  0  0
133135  1  0  0  0  0
133137  1  0  0  0  0
133134  1  0  0  0  0
138145  1  0  0  0  0
138146  1  0  0  0  0
138139  1  0  0  0  0
139140  1  0  0  0  0
140148  1  0  0  0  0
140150  1  0  0  0  0
141153  1  0  0  0  0
139141  1  0  0  0  0
139142  1  0  0  0  0
142143  1  0  0  0  0
143144  2  0  0  0  0
138147  1  0  0  0  0
140149  1  0  0  0  0
141151  1  0  0  0  0
141152  1  0  0  0  0
M  END
> <atom.dprop.PartialCharge>
0.107790 -0.318580 0.121270 -0.200010 -0.083390 -0.069700 -0.051400 -0.082560 -0.148730 -0.074550 -0.135460 0.642590 -0.546370 -0.056840 0.006560 -0.039670 -0.111310 -0.122530 -0.096960 0.151160 -0.106590 -0.573150 -0.122530 -0.111310 -0.144830 0.044990 0.044990 0.044990 0.141350 0.141470 0.139390 0.141970 0.157530 0.159430 0.138950 0.136050 0.089940 0.044260 0.044260 0.044260 0.311900 0.136050 0.138950 0.156790 0.113110 -0.326440 0.125160 -0.206550 -0.085850 -0.073070 -0.039860 -0.090120 -0.141300 -0.075350 -0.143940 0.674300 -0.606570 -0.092970 0.012630 -0.045260 -0.112670 -0.117540 -0.090820 0.152660 -0.115410 -0.564820 -0.117540 -0.112670 -0.145330 0.045080 0.045080 0.045080 0.139520 0.137390 0.139900 0.137910 0.156000 0.139360 0.135060 0.140640 0.082080 0.048100 0.048100 0.048100 0.312690 0.140640 0.135060 0.158150 0.116240 -0.323900 0.152000 -0.189470 -0.080710 -0.072980 -0.039280 -0.094710 -0.144290 -0.077340 -0.143250 0.674970 -0.615970 -0.088400 0.001650 -0.027160 -0.117020 -0.117260 -0.118010 0.155720 -0.100220 -0.542230 -0.117260 -0.117020 -0.138910 0.042130 0.042130 0.042130 0.135090 0.136940 0.136600 0.134930 0.154280 0.146450 0.138640 0.133570 0.082590 0.046110 0.046110 0.046110 0.319000 0.133570 0.138640 0.147470 0.126730 -0.444150 0.056600 0.056600 0.056600 -0.114160 0.188610 -0.114160 -0.114160 -0.451180 0.751170 -0.606910 0.052510 0.052510 0.052510 0.052510 0.052510 0.052510 0.052510 0.052510 0.052510

$$$$
