mop_tetramer.pdb
  -OEChem-09172412093D

197208  0     1  0  0  0  0  0999 V2000
   -3.3270   -5.0450    0.1660 C   0  0  0  0  0  0  0  0  0  0  0  0
   -4.3040   -5.3910   -0.5520 O   0  0  0  0  0  0  0  0  0  0  0  0
   -2.9550   -3.6020    0.1220 C   0  0  0  0  0  0  0  0  0  0  0  0
   -1.8570   -3.0460    0.9570 C   0  0  0  0  0  0  0  0  0  0  0  0
   -1.5190   -1.6270    0.9760 C   0  0  0  0  0  0  0  0  0  0  0  0
   -2.2170   -0.6520    0.1190 C   0  0  0  0  0  0  0  0  0  0  0  0
   -1.8890    0.7920    0.1000 C   0  0  0  0  0  0  0  0  0  0  0  0
   -0.5060    1.3240   -0.1670 C   0  0  0  0  0  0  0  0  0  0  0  0
   -0.2870    2.7820   -0.0480 C   0  0  0  0  0  0  0  0  0  0  0  0
   -1.3730    3.7050    0.1890 C   0  0  0  0  0  0  0  0  0  0  0  0
   -1.0230    5.0310    0.1990 O   0  0  0  0  0  0  0  0  0  0  0  0
   -2.0260    5.9820    0.5110 C   0  0  0  0  0  0  0  0  0  0  0  0
   -2.7190    3.2120    0.3720 C   0  0  0  0  0  0  0  0  0  0  0  0
   -2.9680    1.7800    0.3290 C   0  0  0  0  0  0  0  0  0  0  0  0
    0.6350    0.4700   -0.5420 C   0  0  0  0  0  0  0  0  0  0  0  0
    0.5940   -0.4160   -1.7180 C   0  0  0  0  0  0  0  0  0  0  0  0
    1.7080   -1.2920   -2.0480 C   0  0  0  0  0  0  0  0  0  0  0  0
    2.9060   -1.2890   -1.2230 C   0  0  0  0  0  0  0  0  0  0  0  0
    2.9770   -0.4430   -0.0300 C   0  0  0  0  0  0  0  0  0  0  0  0
    1.8440    0.4180    0.2990 C   0  0  0  0  0  0  0  0  0  0  0  0
    4.1080   -0.5890    0.9820 C   0  0  1  0  0  0  0  0  0  0  0  0
    4.2710   -1.9500    1.5140 N   0  0  0  0  0  0  0  0  0  0  0  0
    5.4300   -0.1790    0.3130 C   0  0  0  0  0  0  0  0  0  0  0  0
   -3.2520   -1.2050   -0.7690 C   0  0  0  0  0  0  0  0  0  0  0  0
   -3.5900   -2.6150   -0.7800 C   0  0  0  0  0  0  0  0  0  0  0  0
   -1.1950   -3.7290    1.4780 H   0  0  0  0  0  0  0  0  0  0  0  0
   -0.6450   -1.3270    1.5460 H   0  0  0  0  0  0  0  0  0  0  0  0
    0.7240    3.1640   -0.1390 H   0  0  0  0  0  0  0  0  0  0  0  0
   -1.5600    6.9710    0.5240 H   0  0  0  0  0  0  0  0  0  0  0  0
   -2.4530    5.8000    1.5030 H   0  0  0  0  0  0  0  0  0  0  0  0
   -2.8060    5.9900   -0.2580 H   0  0  0  0  0  0  0  0  0  0  0  0
   -3.5410    3.8580    0.6370 H   0  0  0  0  0  0  0  0  0  0  0  0
   -3.9590    1.4100    0.5630 H   0  0  0  0  0  0  0  0  0  0  0  0
   -0.3660   -0.6280   -2.1750 H   0  0  0  0  0  0  0  0  0  0  0  0
    1.4870   -2.1990   -2.5990 H   0  0  0  0  0  0  0  0  0  0  0  0
    3.5330   -2.1740   -1.2530 H   0  0  0  0  0  0  0  0  0  0  0  0
    1.7980    0.8380    1.3000 H   0  0  0  0  0  0  0  0  0  0  0  0
    3.9570    0.1170    1.8100 H   0  0  0  0  0  0  0  0  0  0  0  0
    4.2490   -2.6150    0.7510 H   0  0  0  0  0  0  0  0  0  0  0  0
    5.7270   -0.8790   -0.4770 H   0  0  0  0  0  0  0  0  0  0  0  0
    6.2440   -0.1400    1.0460 H   0  0  0  0  0  0  0  0  0  0  0  0
    5.3500    0.8160   -0.1420 H   0  0  0  0  0  0  0  0  0  0  0  0
   -3.7020   -0.5640   -1.5140 H   0  0  0  0  0  0  0  0  0  0  0  0
   -4.2770   -2.9950   -1.5270 H   0  0  0  0  0  0  0  0  0  0  0  0
    3.2190   -2.3680    2.3730 C   0  0  0  0  0  0  0  0  0  0  0  0
    2.6760   -3.4380    2.0170 O   0  0  0  0  0  0  0  0  0  0  0  0
    3.1300   -1.9960    3.7910 C   0  0  0  0  0  0  0  0  0  0  0  0
    4.2520   -1.3720    4.5180 C   0  0  0  0  0  0  0  0  0  0  0  0
    4.2250   -1.1520    5.9560 C   0  0  0  0  0  0  0  0  0  0  0  0
    3.0340   -1.4530    6.7670 C   0  0  0  0  0  0  0  0  0  0  0  0
    2.9900   -1.2180    8.2280 C   0  0  0  0  0  0  0  0  0  0  0  0
    3.3050    0.1180    8.8500 C   0  0  0  0  0  0  0  0  0  0  0  0
    3.3870    0.1970   10.3220 C   0  0  0  0  0  0  0  0  0  0  0  0
    3.0540   -0.9220   11.1710 C   0  0  0  0  0  0  0  0  0  0  0  0
    3.1040   -0.6690   12.5190 O   0  0  0  0  0  0  0  0  0  0  0  0
    2.8740   -1.7500   13.4060 C   0  0  0  0  0  0  0  0  0  0  0  0
    2.6720   -2.1910   10.5880 C   0  0  0  0  0  0  0  0  0  0  0  0
    2.6540   -2.3350    9.1410 C   0  0  0  0  0  0  0  0  0  0  0  0
    3.5400    1.3400    8.0580 C   0  0  0  0  0  0  0  0  0  0  0  0
    2.5520    1.8390    7.0840 C   0  0  0  0  0  0  0  0  0  0  0  0
    2.8290    2.9980    6.2490 C   0  0  0  0  0  0  0  0  0  0  0  0
    4.0940    3.7040    6.3770 C   0  0  0  0  0  0  0  0  0  0  0  0
    5.1120    3.2290    7.3170 C   0  0  0  0  0  0  0  0  0  0  0  0
    4.8320    2.0490    8.1330 C   0  0  0  0  0  0  0  0  0  0  0  0
    6.5250    3.8010    7.3140 C   0  0  1  0  0  0  0  0  0  0  0  0
    7.2030    3.7510    6.0100 N   0  0  0  0  0  0  0  0  0  0  0  0
    6.4650    5.2750    7.7520 C   0  0  0  0  0  0  0  0  0  0  0  0
    1.8660   -1.9700    6.0330 C   0  0  0  0  0  0  0  0  0  0  0  0
    1.9050   -2.2060    4.5990 C   0  0  0  0  0  0  0  0  0  0  0  0
    5.1190   -1.0410    3.9570 H   0  0  0  0  0  0  0  0  0  0  0  0
    5.0890   -0.6730    6.4040 H   0  0  0  0  0  0  0  0  0  0  0  0
    3.7140    1.1270   10.7730 H   0  0  0  0  0  0  0  0  0  0  0  0
    2.9990   -1.3780   14.4270 H   0  0  0  0  0  0  0  0  0  0  0  0
    3.6010   -2.5530   13.2510 H   0  0  0  0  0  0  0  0  0  0  0  0
    1.8490   -2.1210   13.3100 H   0  0  0  0  0  0  0  0  0  0  0  0
    2.4850   -3.0700   11.1840 H   0  0  0  0  0  0  0  0  0  0  0  0
    2.5060   -3.3190    8.7100 H   0  0  0  0  0  0  0  0  0  0  0  0
    1.7540    1.1750    6.7720 H   0  0  0  0  0  0  0  0  0  0  0  0
    2.3250    3.0510    5.2890 H   0  0  0  0  0  0  0  0  0  0  0  0
    4.4280    4.2770    5.5180 H   0  0  0  0  0  0  0  0  0  0  0  0
    5.6730    1.5380    8.5910 H   0  0  0  0  0  0  0  0  0  0  0  0
    7.1330    3.2860    8.0690 H   0  0  0  0  0  0  0  0  0  0  0  0
    6.5720    4.0890    5.2930 H   0  0  0  0  0  0  0  0  0  0  0  0
    5.9600    5.9040    7.0100 H   0  0  0  0  0  0  0  0  0  0  0  0
    7.4730    5.6790    7.9000 H   0  0  0  0  0  0  0  0  0  0  0  0
    5.9240    5.3840    8.7000 H   0  0  0  0  0  0  0  0  0  0  0  0
    0.9360   -2.1410    6.5560 H   0  0  0  0  0  0  0  0  0  0  0  0
    1.0300   -2.5810    4.0830 H   0  0  0  0  0  0  0  0  0  0  0  0
    7.5430    2.4390    5.5830 C   0  0  0  0  0  0  0  0  0  0  0  0
    7.0860    2.1550    4.4520 O   0  0  0  0  0  0  0  0  0  0  0  0
    8.7470    1.7260    6.0260 C   0  0  0  0  0  0  0  0  0  0  0  0
    9.8390    2.3980    6.7550 C   0  0  0  0  0  0  0  0  0  0  0  0
   11.1030    1.7400    7.0470 C   0  0  0  0  0  0  0  0  0  0  0  0
   11.3360    0.3230    6.7200 C   0  0  0  0  0  0  0  0  0  0  0  0
   12.6070   -0.3650    7.0430 C   0  0  0  0  0  0  0  0  0  0  0  0
   13.1790   -0.4050    8.4360 C   0  0  0  0  0  0  0  0  0  0  0  0
   14.5320   -0.9660    8.6160 C   0  0  0  0  0  0  0  0  0  0  0  0
   15.2540   -1.5910    7.5330 C   0  0  0  0  0  0  0  0  0  0  0  0
   16.4760   -2.1170    7.8730 O   0  0  0  0  0  0  0  0  0  0  0  0
   17.2370   -2.7370    6.8520 C   0  0  0  0  0  0  0  0  0  0  0  0
   14.6770   -1.6400    6.2060 C   0  0  0  0  0  0  0  0  0  0  0  0
   13.3760   -1.0350    5.9700 C   0  0  0  0  0  0  0  0  0  0  0  0
   12.4610    0.1090    9.6160 C   0  0  0  0  0  0  0  0  0  0  0  0
   11.1160   -0.3690    9.9840 C   0  0  0  0  0  0  0  0  0  0  0  0
   10.3890    0.2010   11.1080 C   0  0  0  0  0  0  0  0  0  0  0  0
   10.9850    1.2680   11.8960 C   0  0  0  0  0  0  0  0  0  0  0  0
   12.3060    1.7940   11.5440 C   0  0  0  0  0  0  0  0  0  0  0  0
   13.0240    1.2160   10.4110 C   0  0  0  0  0  0  0  0  0  0  0  0
   12.8600    3.0530   12.1920 C   0  0  1  0  0  0  0  0  0  0  0  0
   11.9920    4.2390   12.0740 N   0  0  0  0  0  0  0  0  0  0  0  0
   13.0790    2.7780   13.6910 C   0  0  0  0  0  0  0  0  0  0  0  0
   10.2100   -0.3900    6.0960 C   0  0  0  0  0  0  0  0  0  0  0  0
    8.9570    0.2800    5.7840 C   0  0  0  0  0  0  0  0  0  0  0  0
    9.6800    3.4090    7.1130 H   0  0  0  0  0  0  0  0  0  0  0  0
   11.8380    2.3040    7.6100 H   0  0  0  0  0  0  0  0  0  0  0  0
   14.9900   -0.9100    9.5960 H   0  0  0  0  0  0  0  0  0  0  0  0
   18.1700   -3.0940    7.3010 H   0  0  0  0  0  0  0  0  0  0  0  0
   17.4970   -2.0230    6.0650 H   0  0  0  0  0  0  0  0  0  0  0  0
   16.7110   -3.6050    6.4420 H   0  0  0  0  0  0  0  0  0  0  0  0
   15.2060   -2.0430    5.3560 H   0  0  0  0  0  0  0  0  0  0  0  0
   12.9890   -0.9850    4.9580 H   0  0  0  0  0  0  0  0  0  0  0  0
   10.5440   -0.9210    9.2460 H   0  0  0  0  0  0  0  0  0  0  0  0
    9.3050    0.1540   11.0730 H   0  0  0  0  0  0  0  0  0  0  0  0
   10.3080    1.9220   12.4350 H   0  0  0  0  0  0  0  0  0  0  0  0
   13.8430    1.7860    9.9840 H   0  0  0  0  0  0  0  0  0  0  0  0
   13.8480    3.2780   11.7760 H   0  0  0  0  0  0  0  0  0  0  0  0
   11.0570    3.9900   12.3450 H   0  0  0  0  0  0  0  0  0  0  0  0
   12.1390    2.6390   14.2290 H   0  0  0  0  0  0  0  0  0  0  0  0
   13.6160    3.6110   14.1640 H   0  0  0  0  0  0  0  0  0  0  0  0
   13.6850    1.8750   13.8390 H   0  0  0  0  0  0  0  0  0  0  0  0
   10.2820   -1.4530    5.9090 H   0  0  0  0  0  0  0  0  0  0  0  0
    8.1420   -0.2720    5.3270 H   0  0  0  0  0  0  0  0  0  0  0  0
   11.8490    4.7350   10.7460 C   0  0  0  0  0  0  0  0  0  0  0  0
   10.6500    4.8380   10.3960 O   0  0  0  0  0  0  0  0  0  0  0  0
   12.8100    5.6320   10.1020 C   0  0  0  0  0  0  0  0  0  0  0  0
   13.9110    6.2430   10.8610 C   0  0  0  0  0  0  0  0  0  0  0  0
   14.8640    7.1410   10.2490 C   0  0  0  0  0  0  0  0  0  0  0  0
   14.7150    7.6600    8.8850 C   0  0  0  0  0  0  0  0  0  0  0  0
   15.6310    8.6940    8.3340 C   0  0  0  0  0  0  0  0  0  0  0  0
   17.1370    8.6320    8.4850 C   0  0  0  0  0  0  0  0  0  0  0  0
   17.9280    9.8080    8.0680 C   0  0  0  0  0  0  0  0  0  0  0  0
   17.3280   10.9600    7.4410 C   0  0  0  0  0  0  0  0  0  0  0  0
   18.2060   11.9560    7.0910 O   0  0  0  0  0  0  0  0  0  0  0  0
   17.6880   13.0910    6.4170 C   0  0  0  0  0  0  0  0  0  0  0  0
   15.8950   11.0210    7.2550 C   0  0  0  0  0  0  0  0  0  0  0  0
   15.0660    9.9060    7.6910 C   0  0  0  0  0  0  0  0  0  0  0  0
   17.8510    7.4760    9.0600 C   0  0  0  0  0  0  0  0  0  0  0  0
   17.6580    6.1030    8.5570 C   0  0  0  0  0  0  0  0  0  0  0  0
   18.2530    4.9580    9.2300 C   0  0  0  0  0  0  0  0  0  0  0  0
   19.0610    5.1500   10.4250 C   0  0  0  0  0  0  0  0  0  0  0  0
   19.3060    6.4960   10.9380 C   0  0  0  0  0  0  0  0  0  0  0  0
   18.6770    7.6360   10.2750 C   0  0  0  0  0  0  0  0  0  0  0  0
   20.1030    6.7410   12.2050 C   0  0  1  0  0  0  0  0  0  0  0  0
   19.5630    6.1370   13.4110 N   0  0  0  0  0  0  0  0  0  0  0  0
   21.5310    6.2030   12.0210 C   0  0  0  0  0  0  0  0  0  0  0  0
   13.6530    7.0200    8.0890 C   0  0  0  0  0  0  0  0  0  0  0  0
   12.7650    6.0130    8.6680 C   0  0  0  0  0  0  0  0  0  0  0  0
   14.0280    5.9720   11.9030 H   0  0  0  0  0  0  0  0  0  0  0  0
   15.8060    7.2470   10.7600 H   0  0  0  0  0  0  0  0  0  0  0  0
   18.9990    9.7950    8.2310 H   0  0  0  0  0  0  0  0  0  0  0  0
   18.5260   13.7400    6.1600 H   0  0  0  0  0  0  0  0  0  0  0  0
   17.0150   13.6570    7.0680 H   0  0  0  0  0  0  0  0  0  0  0  0
   17.1890   12.8040    5.4850 H   0  0  0  0  0  0  0  0  0  0  0  0
   15.3940   11.9200    6.9270 H   0  0  0  0  0  0  0  0  0  0  0  0
   13.9880   10.0290    7.6990 H   0  0  0  0  0  0  0  0  0  0  0  0
   16.8300    5.9140    7.8810 H   0  0  0  0  0  0  0  0  0  0  0  0
   17.7820    3.9910    9.0830 H   0  0  0  0  0  0  0  0  0  0  0  0
   19.1810    4.3090   11.0990 H   0  0  0  0  0  0  0  0  0  0  0  0
   18.5780    8.5560   10.8430 H   0  0  0  0  0  0  0  0  0  0  0  0
   20.2190    7.8220   12.3610 H   0  0  0  0  0  0  0  0  0  0  0  0
   19.3930    5.1410   13.3320 H   0  0  0  0  0  0  0  0  0  0  0  0
   21.5530    5.1140   11.8990 H   0  0  0  0  0  0  0  0  0  0  0  0
   22.1560    6.4510   12.8870 H   0  0  0  0  0  0  0  0  0  0  0  0
   22.0050    6.6470   11.1370 H   0  0  0  0  0  0  0  0  0  0  0  0
   13.5700    7.2270    7.0320 H   0  0  0  0  0  0  0  0  0  0  0  0
   12.0270    5.5150    8.0480 H   0  0  0  0  0  0  0  0  0  0  0  0
   -2.9920   -7.0950    1.2670 C   0  0  0  0  0  0  0  0  0  0  0  0
   -2.5330   -5.7720    1.0410 O   0  0  0  0  0  0  0  0  0  0  0  0
   -3.9850   -7.0910    1.7300 H   0  0  0  0  0  0  0  0  0  0  0  0
   -2.3020   -7.5750    1.9670 H   0  0  0  0  0  0  0  0  0  0  0  0
   -2.9930   -7.6850    0.3440 H   0  0  0  0  0  0  0  0  0  0  0  0
   17.2480   10.1820   14.1890 C   0  0  0  0  0  0  0  0  0  0  0  0
   16.9510    8.6710   14.2150 C   0  0  0  0  0  0  0  0  0  0  0  0
   16.3680    8.3280   15.5920 C   0  0  0  0  0  0  0  0  0  0  0  0
   15.9250    8.4060   13.1210 C   0  0  0  0  0  0  0  0  0  0  0  0
   18.2270    8.0590   13.9190 O   0  0  0  0  0  0  0  0  0  0  0  0
   18.3750    6.6910   13.9490 C   0  0  0  0  0  0  0  0  0  0  0  0
   17.6990    5.7770   14.4670 O   0  0  0  0  0  0  0  0  0  0  0  0
   16.3440   10.7770   14.3580 H   0  0  0  0  0  0  0  0  0  0  0  0
   17.9880   10.4480   14.9520 H   0  0  0  0  0  0  0  0  0  0  0  0
   17.6750   10.4780   13.2230 H   0  0  0  0  0  0  0  0  0  0  0  0
   17.1330    8.4210   16.3760 H   0  0  0  0  0  0  0  0  0  0  0  0
   15.9760    7.3080   15.6340 H   0  0  0  0  0  0  0  0  0  0  0  0
   15.5300    8.9870   15.8390 H   0  0  0  0  0  0  0  0  0  0  0  0
   16.3210    8.7310   12.1550 H   0  0  0  0  0  0  0  0  0  0  0  0
   15.6870    7.3400   13.0530 H   0  0  0  0  0  0  0  0  0  0  0  0
   14.9880    8.9460   13.2980 H   0  0  0  0  0  0  0  0  0  0  0  0
  1178  1  0  0  0  0
  1  2  2  0  0  0  0
  1  3  1  0  0  0  0
  3  4  2  0  0  0  0
  4  5  1  0  0  0  0
  4 26  1  0  0  0  0
  5 27  1  0  0  0  0
  5  6  2  0  0  0  0
  6  7  1  0  0  0  0
  7 14  2  0  0  0  0
  8  9  2  0  0  0  0
  7  8  1  0  0  0  0
  9 10  1  0  0  0  0
 10 11  1  0  0  0  0
 10 13  2  0  0  0  0
 11 12  1  0  0  0  0
 12 29  1  0  0  0  0
 12 30  1  0  0  0  0
 13 32  1  0  0  0  0
 13 14  1  0  0  0  0
 14 33  1  0  0  0  0
  8 15  1  0  0  0  0
 15 20  1  0  0  0  0
 15 16  2  0  0  0  0
 16 17  1  0  0  0  0
 17 18  2  0  0  0  0
 18 19  1  0  0  0  0
 19 20  2  0  0  0  0
 19 21  1  0  0  0  0
 20 37  1  0  0  0  0
 21 22  1  0  0  0  0
 21 38  1  0  0  0  0
 22 45  1  0  0  0  0
 21 23  1  0  0  0  0
 23 41  1  0  0  0  0
  6 24  1  0  0  0  0
 24 25  2  0  0  0  0
  3 25  1  0  0  0  0
  9 28  1  0  0  0  0
 12 31  1  0  0  0  0
 16 34  1  0  0  0  0
 17 35  1  0  0  0  0
 18 36  1  0  0  0  0
 22 39  1  0  0  0  0
 23 40  1  0  0  0  0
 23 42  1  0  0  0  0
 24 43  1  0  0  0  0
 25 44  1  0  0  0  0
 45 47  1  0  0  0  0
 45 46  2  0  0  0  0
 47 48  2  0  0  0  0
 47 69  1  0  0  0  0
 48 49  1  0  0  0  0
 49 71  1  0  0  0  0
 49 50  2  0  0  0  0
 50 51  1  0  0  0  0
 51 52  1  0  0  0  0
 51 58  2  0  0  0  0
 52 53  2  0  0  0  0
 53 72  1  0  0  0  0
 53 54  1  0  0  0  0
 54 55  1  0  0  0  0
 55 56  1  0  0  0  0
 56 73  1  0  0  0  0
 54 57  2  0  0  0  0
 57 76  1  0  0  0  0
 57 58  1  0  0  0  0
 59 64  1  0  0  0  0
 52 59  1  0  0  0  0
 59 60  2  0  0  0  0
 61 62  2  0  0  0  0
 60 61  1  0  0  0  0
 62 63  1  0  0  0  0
 63 64  2  0  0  0  0
 64 81  1  0  0  0  0
 63 65  1  0  0  0  0
 65 67  1  0  0  0  0
 65 82  1  0  0  0  0
 65 66  1  0  0  0  0
 67 85  1  0  0  0  0
 67 86  1  0  0  0  0
 68 87  1  0  0  0  0
 50 68  1  0  0  0  0
 68 69  2  0  0  0  0
 48 70  1  0  0  0  0
 56 74  1  0  0  0  0
 56 75  1  0  0  0  0
 58 77  1  0  0  0  0
 60 78  1  0  0  0  0
 61 79  1  0  0  0  0
 62 80  1  0  0  0  0
 66 83  1  0  0  0  0
 67 84  1  0  0  0  0
 69 88  1  0  0  0  0
 66 89  1  0  0  0  0
 89 91  1  0  0  0  0
 89 90  2  0  0  0  0
 91 92  2  0  0  0  0
 92 93  1  0  0  0  0
 92114  1  0  0  0  0
 93115  1  0  0  0  0
 94 95  1  0  0  0  0
 93 94  2  0  0  0  0
 95 96  1  0  0  0  0
 96 97  2  0  0  0  0
 96103  1  0  0  0  0
 97116  1  0  0  0  0
 98 99  1  0  0  0  0
 97 98  1  0  0  0  0
100117  1  0  0  0  0
 99100  1  0  0  0  0
 98101  2  0  0  0  0
101102  1  0  0  0  0
 95102  2  0  0  0  0
103104  2  0  0  0  0
103108  1  0  0  0  0
104105  1  0  0  0  0
105106  2  0  0  0  0
106124  1  0  0  0  0
106107  1  0  0  0  0
107109  1  0  0  0  0
107108  2  0  0  0  0
109126  1  0  0  0  0
109111  1  0  0  0  0
109110  1  0  0  0  0
110127  1  0  0  0  0
111130  1  0  0  0  0
111129  1  0  0  0  0
111128  1  0  0  0  0
 94112  1  0  0  0  0
 91113  1  0  0  0  0
112113  2  0  0  0  0
100118  1  0  0  0  0
100119  1  0  0  0  0
101120  1  0  0  0  0
102121  1  0  0  0  0
104122  1  0  0  0  0
105123  1  0  0  0  0
108125  1  0  0  0  0
112131  1  0  0  0  0
113132  1  0  0  0  0
110133  1  0  0  0  0
133134  2  0  0  0  0
133135  1  0  0  0  0
135136  2  0  0  0  0
136158  1  0  0  0  0
137159  1  0  0  0  0
136137  1  0  0  0  0
137138  2  0  0  0  0
139140  1  0  0  0  0
138139  1  0  0  0  0
140147  1  0  0  0  0
141160  1  0  0  0  0
140141  2  0  0  0  0
141142  1  0  0  0  0
142143  1  0  0  0  0
144162  1  0  0  0  0
143144  1  0  0  0  0
142145  2  0  0  0  0
145146  1  0  0  0  0
146165  1  0  0  0  0
139146  2  0  0  0  0
147152  1  0  0  0  0
147148  2  0  0  0  0
148149  1  0  0  0  0
149150  2  0  0  0  0
150151  1  0  0  0  0
150168  1  0  0  0  0
151153  1  0  0  0  0
152169  1  0  0  0  0
151152  2  0  0  0  0
153170  1  0  0  0  0
153154  1  0  0  0  0
154187  1  0  0  0  0
153155  1  0  0  0  0
155173  1  0  0  0  0
156157  2  0  0  0  0
138156  1  0  0  0  0
135157  1  0  0  0  0
144161  1  0  0  0  0
144163  1  0  0  0  0
145164  1  0  0  0  0
148166  1  0  0  0  0
149167  1  0  0  0  0
154171  1  0  0  0  0
155172  1  0  0  0  0
155174  1  0  0  0  0
156175  1  0  0  0  0
157176  1  0  0  0  0
177179  1  0  0  0  0
177180  1  0  0  0  0
177178  1  0  0  0  0
177181  1  0  0  0  0
182183  1  0  0  0  0
182189  1  0  0  0  0
182190  1  0  0  0  0
183184  1  0  0  0  0
184193  1  0  0  0  0
184194  1  0  0  0  0
184192  1  0  0  0  0
185197  1  0  0  0  0
183185  1  0  0  0  0
186187  1  0  0  0  0
183186  1  0  0  0  0
187188  2  0  0  0  0
182191  1  0  0  0  0
185195  1  0  0  0  0
185196  1  0  0  0  0
M  END
> <atom.dprop.PartialCharge>
0.647620 -0.538720 -0.136420 -0.076030 -0.130930 0.000110 -0.080050 0.005960 -0.139430 0.128680 -0.320040 0.112750 -0.211770 -0.086480 -0.037700 -0.104970 -0.128530 -0.107060 -0.099820 -0.107650 0.154350 -0.572110 -0.107390 -0.130930 -0.076030 0.152590 0.141570 0.177220 0.043670 0.043670 0.043670 0.137030 0.137740 0.136960 0.134700 0.138760 0.130410 0.079350 0.316330 0.044360 0.044360 0.044360 0.141570 0.152590 0.675960 -0.613190 -0.138350 -0.091850 -0.125480 -0.010220 -0.074650 0.005160 -0.147420 0.133030 -0.324710 0.112400 -0.200230 -0.084200 -0.037910 -0.108700 -0.128420 -0.112430 -0.108410 -0.106380 0.145790 -0.560750 -0.102750 -0.125480 -0.091850 0.145170 0.141200 0.154970 0.046400 0.046400 0.046400 0.140640 0.138560 0.137340 0.134460 0.135170 0.131050 0.090430 0.300990 0.044990 0.044990 0.044990 0.141200 0.145170 0.676400 -0.596350 -0.137610 -0.093060 -0.126350 -0.006710 -0.078230 0.007180 -0.144980 0.128780 -0.324560 0.112750 -0.203250 -0.083200 -0.041760 -0.109560 -0.131150 -0.109640 -0.098560 -0.108280 0.150690 -0.565200 -0.115900 -0.126350 -0.093060 0.142780 0.139370 0.158200 0.046070 0.046070 0.046070 0.140820 0.141240 0.137550 0.138060 0.139560 0.135480 0.084780 0.309930 0.046180 0.046180 0.046180 0.139370 0.142780 0.674800 -0.609440 -0.139180 -0.092450 -0.128000 -0.005650 -0.078340 0.008180 -0.147140 0.128790 -0.325960 0.112860 -0.202140 -0.083440 -0.044980 -0.108110 -0.135410 -0.101050 -0.112200 -0.099840 0.162430 -0.556460 -0.104040 -0.128000 -0.092450 0.146270 0.140060 0.157370 0.045960 0.045960 0.045960 0.141990 0.142240 0.134470 0.132420 0.143010 0.133360 0.086430 0.324490 0.047350 0.047350 0.047350 0.140060 0.146270 0.124250 -0.429000 0.051030 0.051030 0.051030 -0.115350 0.189100 -0.115350 -0.115350 -0.449760 0.754620 -0.603890 0.052220 0.052220 0.052220 0.052220 0.052220 0.052220 0.052220 0.052220 0.052220

$$$$
