pmp_tetramer.pdb
  -OEChem-09052517413D

197208  0     1  0  0  0  0  0999 V2000
    2.1140    5.0240   -0.1680 C   0  0  0  0  0  0  0  0  0  0  0  0
    0.8890    4.3070   -0.2370 O   0  0  0  0  0  0  0  0  0  0  0  0
    0.9680    2.9440   -0.1570 C   0  0  0  0  0  0  0  0  0  0  0  0
    2.1350    2.2010    0.0170 C   0  0  0  0  0  0  0  0  0  0  0  0
    2.0980    0.8000    0.0900 C   0  0  0  0  0  0  0  0  0  0  0  0
    3.3380    0.0190    0.2690 C   0  0  0  0  0  0  0  0  0  0  0  0
    4.4930    0.2970   -0.4850 C   0  0  0  0  0  0  0  0  0  0  0  0
    5.6490   -0.4800   -0.3600 C   0  0  0  0  0  0  0  0  0  0  0  0
    5.6660   -1.5730    0.5110 C   0  0  0  0  0  0  0  0  0  0  0  0
    6.8400   -2.4870    0.4630 C   0  0  0  0  0  0  0  0  0  0  0  0
    7.8500   -2.2740   -0.1800 O   0  0  0  0  0  0  0  0  0  0  0  0
    4.5430   -1.8340    1.3060 C   0  0  0  0  0  0  0  0  0  0  0  0
    3.3970   -1.0420    1.1880 C   0  0  0  0  0  0  0  0  0  0  0  0
    0.8440    0.1660   -0.0160 C   0  0  0  0  0  0  0  0  0  0  0  0
   -0.3500    0.8890   -0.1900 C   0  0  0  0  0  0  0  0  0  0  0  0
   -1.6550    0.2050   -0.2920 C   0  0  0  0  0  0  0  0  0  0  0  0
   -1.8120   -0.9430   -1.0830 C   0  0  0  0  0  0  0  0  0  0  0  0
   -3.0390   -1.6060   -1.1590 C   0  0  0  0  0  0  0  0  0  0  0  0
   -4.1520   -1.1370   -0.4490 C   0  0  0  0  0  0  0  0  0  0  0  0
   -5.4510   -1.9120   -0.4960 C   0  0  2  0  0  0  0  0  0  0  0  0
   -6.5140   -1.1290   -1.2700 C   0  0  0  0  0  0  0  0  0  0  0  0
   -5.9600   -2.3220    0.8110 N   0  0  0  0  0  0  0  0  0  0  0  0
   -4.0120    0.0150    0.3320 C   0  0  0  0  0  0  0  0  0  0  0  0
   -2.7800    0.6720    0.4110 C   0  0  0  0  0  0  0  0  0  0  0  0
   -0.2590    2.2850   -0.2610 C   0  0  0  0  0  0  0  0  0  0  0  0
    2.7700    4.7620   -1.0050 H   0  0  0  0  0  0  0  0  0  0  0  0
    1.8800    6.0900   -0.2480 H   0  0  0  0  0  0  0  0  0  0  0  0
    2.6130    4.8630    0.7930 H   0  0  0  0  0  0  0  0  0  0  0  0
    3.0960    2.6960    0.1160 H   0  0  0  0  0  0  0  0  0  0  0  0
    4.4920    1.1040   -1.2160 H   0  0  0  0  0  0  0  0  0  0  0  0
    6.5170   -0.2580   -0.9780 H   0  0  0  0  0  0  0  0  0  0  0  0
    4.5290   -2.6710    2.0000 H   0  0  0  0  0  0  0  0  0  0  0  0
    2.5360   -1.2750    1.8120 H   0  0  0  0  0  0  0  0  0  0  0  0
    0.7940   -0.9210    0.0430 H   0  0  0  0  0  0  0  0  0  0  0  0
   -0.9720   -1.3430   -1.6460 H   0  0  0  0  0  0  0  0  0  0  0  0
   -3.1080   -2.5140   -1.7540 H   0  0  0  0  0  0  0  0  0  0  0  0
   -5.2820   -2.8540   -1.0350 H   0  0  0  0  0  0  0  0  0  0  0  0
   -6.7620   -0.1830   -0.7770 H   0  0  0  0  0  0  0  0  0  0  0  0
   -6.1680   -0.9010   -2.2850 H   0  0  0  0  0  0  0  0  0  0  0  0
   -7.4400   -1.7090   -1.3550 H   0  0  0  0  0  0  0  0  0  0  0  0
   -6.9380   -2.5580    0.8060 H   0  0  0  0  0  0  0  0  0  0  0  0
   -4.8490    0.3790    0.9250 H   0  0  0  0  0  0  0  0  0  0  0  0
   -2.7000    1.5390    1.0630 H   0  0  0  0  0  0  0  0  0  0  0  0
   -1.1570    2.8830   -0.4090 H   0  0  0  0  0  0  0  0  0  0  0  0
   -4.3460  -11.6060    3.5110 C   0  0  0  0  0  0  0  0  0  0  0  0
   -5.6730  -11.7160    4.0050 O   0  0  0  0  0  0  0  0  0  0  0  0
   -6.4270  -10.5750    4.0150 C   0  0  0  0  0  0  0  0  0  0  0  0
   -6.0270   -9.3180    3.5580 C   0  0  0  0  0  0  0  0  0  0  0  0
   -6.8920   -8.2140    3.6340 C   0  0  0  0  0  0  0  0  0  0  0  0
   -6.4840   -6.8800    3.1680 C   0  0  0  0  0  0  0  0  0  0  0  0
   -5.2460   -6.3310    3.5300 C   0  0  0  0  0  0  0  0  0  0  0  0
   -4.8600   -5.0720    3.0660 C   0  0  0  0  0  0  0  0  0  0  0  0
   -5.7020   -4.3280    2.2270 C   0  0  0  0  0  0  0  0  0  0  0  0
   -5.1410   -3.0790    1.6370 C   0  0  0  0  0  0  0  0  0  0  0  0
   -3.9620   -2.8180    1.8480 O   0  0  0  0  0  0  0  0  0  0  0  0
   -6.9480   -4.8540    1.8780 C   0  0  0  0  0  0  0  0  0  0  0  0
   -7.3290   -6.1150    2.3460 C   0  0  0  0  0  0  0  0  0  0  0  0
   -8.1730   -8.4140    4.1690 C   0  0  0  0  0  0  0  0  0  0  0  0
   -8.6050   -9.6680    4.6290 C   0  0  0  0  0  0  0  0  0  0  0  0
   -9.9560   -9.8390    5.1830 C   0  0  0  0  0  0  0  0  0  0  0  0
  -10.4860   -8.8910    6.0720 C   0  0  0  0  0  0  0  0  0  0  0  0
  -11.7850   -9.0120    6.5570 C   0  0  0  0  0  0  0  0  0  0  0  0
  -12.5910  -10.0920    6.1790 C   0  0  0  0  0  0  0  0  0  0  0  0
  -14.0130  -10.1590    6.6900 C   0  0  2  0  0  0  0  0  0  0  0  0
  -14.1660  -11.3060    7.6890 C   0  0  0  0  0  0  0  0  0  0  0  0
  -15.0070  -10.2450    5.6280 N   0  0  0  0  0  0  0  0  0  0  0  0
  -12.0640  -11.0590    5.3140 C   0  0  0  0  0  0  0  0  0  0  0  0
  -10.7630  -10.9290    4.8210 C   0  0  0  0  0  0  0  0  0  0  0  0
   -7.7080  -10.7380    4.5450 C   0  0  0  0  0  0  0  0  0  0  0  0
   -3.7640  -10.8900    4.1000 H   0  0  0  0  0  0  0  0  0  0  0  0
   -3.8700  -12.5860    3.6140 H   0  0  0  0  0  0  0  0  0  0  0  0
   -4.3420  -11.3420    2.4480 H   0  0  0  0  0  0  0  0  0  0  0  0
   -5.0420   -9.1760    3.1230 H   0  0  0  0  0  0  0  0  0  0  0  0
   -4.5630   -6.8800    4.1740 H   0  0  0  0  0  0  0  0  0  0  0  0
   -3.8780   -4.6870    3.3370 H   0  0  0  0  0  0  0  0  0  0  0  0
   -7.6350   -4.3420    1.2150 H   0  0  0  0  0  0  0  0  0  0  0  0
   -8.2930   -6.5150    2.0340 H   0  0  0  0  0  0  0  0  0  0  0  0
   -8.8570   -7.5670    4.2290 H   0  0  0  0  0  0  0  0  0  0  0  0
   -9.8940   -8.0350    6.3860 H   0  0  0  0  0  0  0  0  0  0  0  0
  -12.1770   -8.2330    7.2070 H   0  0  0  0  0  0  0  0  0  0  0  0
  -14.2450   -9.2270    7.2220 H   0  0  0  0  0  0  0  0  0  0  0  0
  -13.9430  -12.2790    7.2370 H   0  0  0  0  0  0  0  0  0  0  0  0
  -13.4890  -11.1680    8.5400 H   0  0  0  0  0  0  0  0  0  0  0  0
  -15.1890  -11.3490    8.0770 H   0  0  0  0  0  0  0  0  0  0  0  0
  -15.7910  -10.8500    5.8030 H   0  0  0  0  0  0  0  0  0  0  0  0
  -12.6730  -11.8990    4.9910 H   0  0  0  0  0  0  0  0  0  0  0  0
  -10.3950  -11.6750    4.1190 H   0  0  0  0  0  0  0  0  0  0  0  0
   -7.9990  -11.7210    4.9110 H   0  0  0  0  0  0  0  0  0  0  0  0
  -21.2670   -3.7910    1.7110 C   0  0  0  0  0  0  0  0  0  0  0  0
  -22.2340   -4.8090    1.4950 O   0  0  0  0  0  0  0  0  0  0  0  0
  -21.8490   -6.0960    1.7550 C   0  0  0  0  0  0  0  0  0  0  0  0
  -20.6140   -6.4970    2.2690 C   0  0  0  0  0  0  0  0  0  0  0  0
  -20.3300   -7.8560    2.5040 C   0  0  0  0  0  0  0  0  0  0  0  0
  -19.0160   -8.2830    3.0250 C   0  0  0  0  0  0  0  0  0  0  0  0
  -17.8250   -7.7540    2.5040 C   0  0  0  0  0  0  0  0  0  0  0  0
  -16.5840   -8.1090    3.0390 C   0  0  0  0  0  0  0  0  0  0  0  0
  -16.4980   -9.0090    4.1070 C   0  0  0  0  0  0  0  0  0  0  0  0
  -15.1630   -9.1910    4.7450 C   0  0  0  0  0  0  0  0  0  0  0  0
  -14.2880   -8.3630    4.5130 O   0  0  0  0  0  0  0  0  0  0  0  0
  -17.6710   -9.5810    4.6070 C   0  0  0  0  0  0  0  0  0  0  0  0
  -18.9130   -9.2170    4.0700 C   0  0  0  0  0  0  0  0  0  0  0  0
  -21.3360   -8.7950    2.2300 C   0  0  0  0  0  0  0  0  0  0  0  0
  -22.5900   -8.4180    1.7110 C   0  0  0  0  0  0  0  0  0  0  0  0
  -23.6200   -9.4290    1.4200 C   0  0  0  0  0  0  0  0  0  0  0  0
  -23.2860  -10.6350    0.7880 C   0  0  0  0  0  0  0  0  0  0  0  0
  -24.2510  -11.6100    0.5380 C   0  0  0  0  0  0  0  0  0  0  0  0
  -25.5850  -11.4100    0.9150 C   0  0  0  0  0  0  0  0  0  0  0  0
  -26.5910  -12.5200    0.6840 C   0  0  2  0  0  0  0  0  0  0  0  0
  -27.6080  -12.1110   -0.3830 C   0  0  0  0  0  0  0  0  0  0  0  0
  -27.2590  -12.9430    1.9090 N   0  0  0  0  0  0  0  0  0  0  0  0
  -25.9330  -10.2040    1.5350 C   0  0  0  0  0  0  0  0  0  0  0  0
  -24.9630   -9.2300    1.7830 C   0  0  0  0  0  0  0  0  0  0  0  0
  -22.8170   -7.0570    1.4740 C   0  0  0  0  0  0  0  0  0  0  0  0
  -20.4000   -3.9310    1.0570 H   0  0  0  0  0  0  0  0  0  0  0  0
  -21.7280   -2.8320    1.4550 H   0  0  0  0  0  0  0  0  0  0  0  0
  -20.9680   -3.7450    2.7640 H   0  0  0  0  0  0  0  0  0  0  0  0
  -19.8560   -5.7620    2.5150 H   0  0  0  0  0  0  0  0  0  0  0  0
  -17.8500   -7.0460    1.6790 H   0  0  0  0  0  0  0  0  0  0  0  0
  -15.6820   -7.6520    2.6350 H   0  0  0  0  0  0  0  0  0  0  0  0
  -17.6700  -10.2700    5.4440 H   0  0  0  0  0  0  0  0  0  0  0  0
  -19.8130   -9.6480    4.5080 H   0  0  0  0  0  0  0  0  0  0  0  0
  -21.1410   -9.8510    2.4160 H   0  0  0  0  0  0  0  0  0  0  0  0
  -22.2590  -10.8390    0.4920 H   0  0  0  0  0  0  0  0  0  0  0  0
  -23.9440  -12.5470    0.0790 H   0  0  0  0  0  0  0  0  0  0  0  0
  -26.0640  -13.4100    0.3150 H   0  0  0  0  0  0  0  0  0  0  0  0
  -28.2170  -11.2580   -0.0620 H   0  0  0  0  0  0  0  0  0  0  0  0
  -27.1080  -11.8340   -1.3180 H   0  0  0  0  0  0  0  0  0  0  0  0
  -28.2930  -12.9380   -0.6000 H   0  0  0  0  0  0  0  0  0  0  0  0
  -28.2520  -13.0910    1.8510 H   0  0  0  0  0  0  0  0  0  0  0  0
  -26.9570  -10.0290    1.8610 H   0  0  0  0  0  0  0  0  0  0  0  0
  -25.2630   -8.3170    2.2960 H   0  0  0  0  0  0  0  0  0  0  0  0
  -23.7680   -6.7290    1.0520 H   0  0  0  0  0  0  0  0  0  0  0  0
  -27.1130  -20.1220    8.6330 C   0  0  0  0  0  0  0  0  0  0  0  0
  -28.4470  -19.8190    9.0250 O   0  0  0  0  0  0  0  0  0  0  0  0
  -29.0310  -18.7240    8.4480 C   0  0  0  0  0  0  0  0  0  0  0  0
  -28.4510  -17.9020    7.4810 C   0  0  0  0  0  0  0  0  0  0  0  0
  -29.1430  -16.7930    6.9610 C   0  0  0  0  0  0  0  0  0  0  0  0
  -28.5210  -15.9060    5.9600 C   0  0  0  0  0  0  0  0  0  0  0  0
  -27.1990  -15.4610    6.1110 C   0  0  0  0  0  0  0  0  0  0  0  0
  -26.5920  -14.6590    5.1400 C   0  0  0  0  0  0  0  0  0  0  0  0
  -27.2960  -14.2610    3.9960 C   0  0  0  0  0  0  0  0  0  0  0  0
  -26.5420  -13.5120    2.9480 C   0  0  0  0  0  0  0  0  0  0  0  0
  -25.3170  -13.4720    3.0230 O   0  0  0  0  0  0  0  0  0  0  0  0
  -28.6280  -14.6590    3.8540 C   0  0  0  0  0  0  0  0  0  0  0  0
  -29.2260  -15.4760    4.8220 C   0  0  0  0  0  0  0  0  0  0  0  0
  -30.4470  -16.5490    7.4290 C   0  0  0  0  0  0  0  0  0  0  0  0
  -31.0600  -17.3570    8.4010 C   0  0  0  0  0  0  0  0  0  0  0  0
  -32.4300  -17.0710    8.8700 C   0  0  0  0  0  0  0  0  0  0  0  0
  -32.8440  -15.7600    9.1650 C   0  0  0  0  0  0  0  0  0  0  0  0
  -34.1540  -15.4840    9.5710 C   0  0  0  0  0  0  0  0  0  0  0  0
  -35.0950  -16.5110    9.7010 C   0  0  0  0  0  0  0  0  0  0  0  0
  -36.5190  -16.1830   10.1220 C   0  0  2  0  0  0  0  0  0  0  0  0
  -36.7790  -16.6640   11.5490 C   0  0  0  0  0  0  0  0  0  0  0  0
  -37.4790  -16.7590    9.1990 N   0  0  0  0  0  0  0  0  0  0  0  0
  -34.6880  -17.8240    9.4240 C   0  0  0  0  0  0  0  0  0  0  0  0
  -33.3780  -18.0960    9.0140 C   0  0  0  0  0  0  0  0  0  0  0  0
  -30.3240  -18.4430    8.9000 C   0  0  0  0  0  0  0  0  0  0  0  0
  -26.4310  -19.3050    8.8900 H   0  0  0  0  0  0  0  0  0  0  0  0
  -26.7930  -21.0090    9.1880 H   0  0  0  0  0  0  0  0  0  0  0  0
  -27.0590  -20.3610    7.5660 H   0  0  0  0  0  0  0  0  0  0  0  0
  -27.4540  -18.1110    7.1070 H   0  0  0  0  0  0  0  0  0  0  0  0
  -26.6220  -15.7380    6.9910 H   0  0  0  0  0  0  0  0  0  0  0  0
  -25.5540  -14.3590    5.2770 H   0  0  0  0  0  0  0  0  0  0  0  0
  -29.2240  -14.3880    2.9910 H   0  0  0  0  0  0  0  0  0  0  0  0
  -30.2540  -15.7990    4.6620 H   0  0  0  0  0  0  0  0  0  0  0  0
  -31.0000  -15.7020    7.0250 H   0  0  0  0  0  0  0  0  0  0  0  0
  -32.1450  -14.9300    9.0790 H   0  0  0  0  0  0  0  0  0  0  0  0
  -34.4360  -14.4520    9.7710 H   0  0  0  0  0  0  0  0  0  0  0  0
  -36.6620  -15.0950   10.0940 H   0  0  0  0  0  0  0  0  0  0  0  0
  -36.6420  -17.7470   11.6450 H   0  0  0  0  0  0  0  0  0  0  0  0
  -36.0950  -16.1800   12.2570 H   0  0  0  0  0  0  0  0  0  0  0  0
  -37.8040  -16.4350   11.8580 H   0  0  0  0  0  0  0  0  0  0  0  0
  -37.7770  -17.7150    9.3190 H   0  0  0  0  0  0  0  0  0  0  0  0
  -35.3910  -18.6500    9.5060 H   0  0  0  0  0  0  0  0  0  0  0  0
  -33.1090  -19.1250    8.7830 H   0  0  0  0  0  0  0  0  0  0  0  0
  -30.7530  -19.0850    9.6680 H   0  0  0  0  0  0  0  0  0  0  0  0
    7.3270   -4.7650    0.7840 C   0  0  0  0  0  0  0  0  0  0  0  0
    6.5240   -3.6350    1.1140 O   0  0  0  0  0  0  0  0  0  0  0  0
    6.8740   -5.2620   -0.0780 H   0  0  0  0  0  0  0  0  0  0  0  0
    7.3050   -5.4540    1.6320 H   0  0  0  0  0  0  0  0  0  0  0  0
    8.3680   -4.5060    0.5680 H   0  0  0  0  0  0  0  0  0  0  0  0
  -39.0670  -18.3080    5.2630 C   0  0  0  0  0  0  0  0  0  0  0  0
  -38.6430  -16.9360    5.8110 C   0  0  0  0  0  0  0  0  0  0  0  0
  -37.4600  -16.4350    4.9710 C   0  0  0  0  0  0  0  0  0  0  0  0
  -39.8360  -15.9790    5.7410 C   0  0  0  0  0  0  0  0  0  0  0  0
  -38.2980  -17.1860    7.1990 O   0  0  0  0  0  0  0  0  0  0  0  0
  -37.6670  -16.2510    7.9480 C   0  0  0  0  0  0  0  0  0  0  0  0
  -37.3040  -15.1500    7.5710 O   0  0  0  0  0  0  0  0  0  0  0  0
  -39.3770  -18.2500    4.2140 H   0  0  0  0  0  0  0  0  0  0  0  0
  -38.2410  -19.0260    5.3400 H   0  0  0  0  0  0  0  0  0  0  0  0
  -39.8950  -18.7250    5.8470 H   0  0  0  0  0  0  0  0  0  0  0  0
  -36.5580  -17.0230    5.1730 H   0  0  0  0  0  0  0  0  0  0  0  0
  -37.2170  -15.3890    5.1840 H   0  0  0  0  0  0  0  0  0  0  0  0
  -37.6800  -16.4930    3.8990 H   0  0  0  0  0  0  0  0  0  0  0  0
  -40.6680  -16.3510    6.3510 H   0  0  0  0  0  0  0  0  0  0  0  0
  -39.5800  -14.9900    6.1360 H   0  0  0  0  0  0  0  0  0  0  0  0
  -40.1930  -15.8530    4.7130 H   0  0  0  0  0  0  0  0  0  0  0  0
  1 28  1  0  0  0  0
  1  2  1  0  0  0  0
  2  3  1  0  0  0  0
  3  4  2  0  0  0  0
  4  5  1  0  0  0  0
  4 29  1  0  0  0  0
  5  6  1  0  0  0  0
  6 13  2  0  0  0  0
  7  8  2  0  0  0  0
  6  7  1  0  0  0  0
  8  9  1  0  0  0  0
  9 12  2  0  0  0  0
  9 10  1  0  0  0  0
 10178  1  0  0  0  0
 10 11  2  0  0  0  0
 12 32  1  0  0  0  0
 12 13  1  0  0  0  0
 13 33  1  0  0  0  0
 14 34  1  0  0  0  0
  5 14  2  0  0  0  0
 14 15  1  0  0  0  0
 15 16  1  0  0  0  0
 16 24  1  0  0  0  0
 16 17  2  0  0  0  0
 17 18  1  0  0  0  0
 18 19  2  0  0  0  0
 19 23  1  0  0  0  0
 20 37  1  0  0  0  0
 19 20  1  0  0  0  0
 20 22  1  0  0  0  0
 21 38  1  0  0  0  0
 20 21  1  0  0  0  0
 22 54  1  0  0  0  0
 23 24  2  0  0  0  0
 23 42  1  0  0  0  0
 24 43  1  0  0  0  0
 15 25  2  0  0  0  0
  3 25  1  0  0  0  0
  1 26  1  0  0  0  0
  1 27  1  0  0  0  0
  7 30  1  0  0  0  0
  8 31  1  0  0  0  0
 17 35  1  0  0  0  0
 18 36  1  0  0  0  0
 21 39  1  0  0  0  0
 21 40  1  0  0  0  0
 22 41  1  0  0  0  0
 25 44  1  0  0  0  0
 45 71  1  0  0  0  0
 45 46  1  0  0  0  0
 45 70  1  0  0  0  0
 46 47  1  0  0  0  0
 47 69  2  0  0  0  0
 48 49  2  0  0  0  0
 47 48  1  0  0  0  0
 49 58  1  0  0  0  0
 50 51  2  0  0  0  0
 49 50  1  0  0  0  0
 51 74  1  0  0  0  0
 52 75  1  0  0  0  0
 51 52  1  0  0  0  0
 52 53  2  0  0  0  0
 54 55  2  0  0  0  0
 53 54  1  0  0  0  0
 53 56  1  0  0  0  0
 56 57  2  0  0  0  0
 50 57  1  0  0  0  0
 58 78  1  0  0  0  0
 58 59  2  0  0  0  0
 59 60  1  0  0  0  0
 60 61  2  0  0  0  0
 61 79  1  0  0  0  0
 61 62  1  0  0  0  0
 62 80  1  0  0  0  0
 62 63  2  0  0  0  0
 63 64  1  0  0  0  0
 64 81  1  0  0  0  0
 64 65  1  0  0  0  0
 65 84  1  0  0  0  0
 65 83  1  0  0  0  0
 66 85  1  0  0  0  0
 64 66  1  0  0  0  0
 63 67  1  0  0  0  0
 60 68  1  0  0  0  0
 67 68  2  0  0  0  0
 59 69  1  0  0  0  0
 69 88  1  0  0  0  0
 45 72  1  0  0  0  0
 48 73  1  0  0  0  0
 56 76  1  0  0  0  0
 57 77  1  0  0  0  0
 65 82  1  0  0  0  0
 67 86  1  0  0  0  0
 68 87  1  0  0  0  0
 89116  1  0  0  0  0
 89 90  1  0  0  0  0
 90 91  1  0  0  0  0
 91 92  2  0  0  0  0
 92 93  1  0  0  0  0
 92117  1  0  0  0  0
 93 94  1  0  0  0  0
 94101  1  0  0  0  0
 94 95  2  0  0  0  0
 95 96  1  0  0  0  0
 96 97  2  0  0  0  0
 97100  1  0  0  0  0
 97 98  1  0  0  0  0
 66 98  1  0  0  0  0
 98 99  2  0  0  0  0
100120  1  0  0  0  0
101121  1  0  0  0  0
100101  2  0  0  0  0
102122  1  0  0  0  0
 93102  2  0  0  0  0
102103  1  0  0  0  0
103104  1  0  0  0  0
104112  1  0  0  0  0
104105  2  0  0  0  0
105106  1  0  0  0  0
106107  2  0  0  0  0
107111  1  0  0  0  0
108125  1  0  0  0  0
107108  1  0  0  0  0
108110  1  0  0  0  0
109126  1  0  0  0  0
108109  1  0  0  0  0
110142  1  0  0  0  0
111112  2  0  0  0  0
111130  1  0  0  0  0
112131  1  0  0  0  0
103113  2  0  0  0  0
 91113  1  0  0  0  0
 89114  1  0  0  0  0
 89115  1  0  0  0  0
 95118  1  0  0  0  0
 96119  1  0  0  0  0
105123  1  0  0  0  0
106124  1  0  0  0  0
109127  1  0  0  0  0
109128  1  0  0  0  0
110129  1  0  0  0  0
113132  1  0  0  0  0
133158  1  0  0  0  0
133134  1  0  0  0  0
133159  1  0  0  0  0
135157  2  0  0  0  0
134135  1  0  0  0  0
135136  1  0  0  0  0
137146  1  0  0  0  0
136137  2  0  0  0  0
138139  2  0  0  0  0
137138  1  0  0  0  0
139162  1  0  0  0  0
140163  1  0  0  0  0
139140  1  0  0  0  0
140141  2  0  0  0  0
142143  2  0  0  0  0
141142  1  0  0  0  0
141144  1  0  0  0  0
144145  2  0  0  0  0
138145  1  0  0  0  0
146147  2  0  0  0  0
147148  1  0  0  0  0
147157  1  0  0  0  0
148156  1  0  0  0  0
148149  2  0  0  0  0
149150  1  0  0  0  0
150151  2  0  0  0  0
150168  1  0  0  0  0
151152  1  0  0  0  0
152169  1  0  0  0  0
152153  1  0  0  0  0
153170  1  0  0  0  0
153172  1  0  0  0  0
153171  1  0  0  0  0
154173  1  0  0  0  0
152154  1  0  0  0  0
155174  1  0  0  0  0
151155  1  0  0  0  0
155156  2  0  0  0  0
157176  1  0  0  0  0
133160  1  0  0  0  0
136161  1  0  0  0  0
144164  1  0  0  0  0
145165  1  0  0  0  0
146166  1  0  0  0  0
149167  1  0  0  0  0
156175  1  0  0  0  0
177178  1  0  0  0  0
177180  1  0  0  0  0
177179  1  0  0  0  0
177181  1  0  0  0  0
182190  1  0  0  0  0
182183  1  0  0  0  0
182191  1  0  0  0  0
183186  1  0  0  0  0
184192  1  0  0  0  0
184193  1  0  0  0  0
183184  1  0  0  0  0
183185  1  0  0  0  0
185196  1  0  0  0  0
185195  1  0  0  0  0
186187  1  0  0  0  0
154187  1  0  0  0  0
187188  2  0  0  0  0
182189  1  0  0  0  0
184194  1  0  0  0  0
185197  1  0  0  0  0
M  END
> <atom.dprop.PartialCharge>
0.110230 -0.322930 0.121270 -0.192210 -0.008550 -0.006350 -0.132830 -0.067790 -0.131930 0.648760 -0.543680 -0.067790 -0.132830 -0.137790 -0.006220 -0.034810 -0.116030 -0.121430 -0.094870 0.150500 -0.110070 -0.570870 -0.121430 -0.116030 -0.137350 0.044720 0.044720 0.044720 0.142430 0.141190 0.155900 0.155900 0.141190 0.140320 0.137890 0.135830 0.088500 0.045130 0.045130 0.045130 0.310650 0.135830 0.137890 0.154580 0.112480 -0.326940 0.124590 -0.136720 -0.012740 -0.015340 -0.128250 -0.091710 -0.139660 0.675660 -0.605580 -0.091710 -0.128250 -0.142120 -0.002680 -0.033620 -0.117940 -0.120840 -0.097210 0.152930 -0.108760 -0.571770 -0.120840 -0.117940 -0.189380 0.045840 0.045840 0.045840 0.155930 0.141970 0.147920 0.147920 0.141970 0.137960 0.137150 0.137410 0.084740 0.045900 0.045900 0.045900 0.312830 0.137410 0.137150 0.142670 0.113840 -0.329360 0.122320 -0.140050 -0.013120 -0.013020 -0.128380 -0.091830 -0.140260 0.675040 -0.609410 -0.091830 -0.128380 -0.142040 0.001100 -0.036370 -0.116840 -0.113600 -0.105780 0.147340 -0.101920 -0.559640 -0.113600 -0.116840 -0.192230 0.045520 0.045520 0.045520 0.153950 0.141280 0.147920 0.147920 0.141280 0.140870 0.134630 0.135930 0.087080 0.046180 0.046180 0.046180 0.305660 0.135930 0.134630 0.143250 0.112950 -0.325240 0.126270 -0.190260 -0.010240 -0.010490 -0.128190 -0.091790 -0.139700 0.674810 -0.606170 -0.091790 -0.128190 -0.141400 -0.006140 -0.032810 -0.116410 -0.118750 -0.097870 0.166120 -0.110930 -0.563190 -0.118750 -0.116410 -0.137180 0.045830 0.045830 0.045830 0.141470 0.139040 0.144780 0.144780 0.139040 0.139320 0.138440 0.136960 0.082740 0.046860 0.046860 0.046860 0.330020 0.136960 0.138440 0.154330 0.126500 -0.439250 0.049980 0.049980 0.049980 -0.114710 0.186320 -0.114710 -0.114710 -0.449390 0.754280 -0.603200 0.051910 0.051910 0.051910 0.051910 0.051910 0.051910 0.051910 0.051910 0.051910

$$$$
