pmp_tetramer.pdb
  -OEChem-08282520293D

197208  0     1  0  0  0  0  0999 V2000
    2.0630    4.9950   -0.1960 C   0  0  0  0  0  0  0  0  0  0  0  0
    0.8530    4.2540   -0.2320 O   0  0  0  0  0  0  0  0  0  0  0  0
    0.9520    2.8920   -0.1570 C   0  0  0  0  0  0  0  0  0  0  0  0
    2.1250    2.1550   -0.0030 C   0  0  0  0  0  0  0  0  0  0  0  0
    2.0950    0.7490    0.0630 C   0  0  0  0  0  0  0  0  0  0  0  0
    3.3340   -0.0330    0.2320 C   0  0  0  0  0  0  0  0  0  0  0  0
    4.4970    0.2780   -0.4950 C   0  0  0  0  0  0  0  0  0  0  0  0
    5.6730   -0.4580   -0.3330 C   0  0  0  0  0  0  0  0  0  0  0  0
    5.7080   -1.5330    0.5590 C   0  0  0  0  0  0  0  0  0  0  0  0
    6.9350   -2.3690    0.6090 C   0  0  0  0  0  0  0  0  0  0  0  0
    7.9350   -2.1600   -0.0570 O   0  0  0  0  0  0  0  0  0  0  0  0
    4.5590   -1.8600    1.2880 C   0  0  0  0  0  0  0  0  0  0  0  0
    3.3890   -1.1170    1.1240 C   0  0  0  0  0  0  0  0  0  0  0  0
    0.8470    0.1090   -0.0270 C   0  0  0  0  0  0  0  0  0  0  0  0
   -0.3500    0.8280   -0.1790 C   0  0  0  0  0  0  0  0  0  0  0  0
   -1.6480    0.1430   -0.2710 C   0  0  0  0  0  0  0  0  0  0  0  0
   -1.8010   -1.0210   -1.0410 C   0  0  0  0  0  0  0  0  0  0  0  0
   -3.0300   -1.6730   -1.1210 C   0  0  0  0  0  0  0  0  0  0  0  0
   -4.1430   -1.1710   -0.4350 C   0  0  0  0  0  0  0  0  0  0  0  0
   -5.4480   -1.9280   -0.4780 C   0  0  2  0  0  0  0  0  0  0  0  0
   -6.4770   -1.1600   -1.3070 C   0  0  0  0  0  0  0  0  0  0  0  0
   -5.9790   -2.2650    0.8410 N   0  0  0  0  0  0  0  0  0  0  0  0
   -4.0050   -0.0070    0.3280 C   0  0  0  0  0  0  0  0  0  0  0  0
   -2.7710    0.6330    0.4160 C   0  0  0  0  0  0  0  0  0  0  0  0
   -0.2690    2.2260   -0.2430 C   0  0  0  0  0  0  0  0  0  0  0  0
    2.7090    4.7370   -1.0410 H   0  0  0  0  0  0  0  0  0  0  0  0
    1.8040    6.0540   -0.2840 H   0  0  0  0  0  0  0  0  0  0  0  0
    2.5820    4.8560    0.7580 H   0  0  0  0  0  0  0  0  0  0  0  0
    3.0820    2.6570    0.0870 H   0  0  0  0  0  0  0  0  0  0  0  0
    4.4890    1.0890   -1.2210 H   0  0  0  0  0  0  0  0  0  0  0  0
    6.5500   -0.2070   -0.9270 H   0  0  0  0  0  0  0  0  0  0  0  0
    4.5470   -2.7050    1.9730 H   0  0  0  0  0  0  0  0  0  0  0  0
    2.5130   -1.4000    1.7060 H   0  0  0  0  0  0  0  0  0  0  0  0
    0.8010   -0.9780    0.0280 H   0  0  0  0  0  0  0  0  0  0  0  0
   -0.9580   -1.4390   -1.5860 H   0  0  0  0  0  0  0  0  0  0  0  0
   -3.1030   -2.5920   -1.6980 H   0  0  0  0  0  0  0  0  0  0  0  0
   -5.2820   -2.8960   -0.9680 H   0  0  0  0  0  0  0  0  0  0  0  0
   -6.7180   -0.1890   -0.8610 H   0  0  0  0  0  0  0  0  0  0  0  0
   -6.1020   -0.9800   -2.3210 H   0  0  0  0  0  0  0  0  0  0  0  0
   -7.4120   -1.7250   -1.3900 H   0  0  0  0  0  0  0  0  0  0  0  0
   -6.9480   -2.5290    0.8080 H   0  0  0  0  0  0  0  0  0  0  0  0
   -4.8450    0.3720    0.9050 H   0  0  0  0  0  0  0  0  0  0  0  0
   -2.6870    1.5060    1.0600 H   0  0  0  0  0  0  0  0  0  0  0  0
   -1.1740    2.8170   -0.3720 H   0  0  0  0  0  0  0  0  0  0  0  0
   -4.3790  -11.6000    3.5340 C   0  0  0  0  0  0  0  0  0  0  0  0
   -5.7160  -11.6830    4.0070 O   0  0  0  0  0  0  0  0  0  0  0  0
   -6.4500  -10.5300    4.0040 C   0  0  0  0  0  0  0  0  0  0  0  0
   -6.0260   -9.2820    3.5510 C   0  0  0  0  0  0  0  0  0  0  0  0
   -6.8840   -8.1690    3.6040 C   0  0  0  0  0  0  0  0  0  0  0  0
   -6.4610   -6.8410    3.1360 C   0  0  0  0  0  0  0  0  0  0  0  0
   -5.2060   -6.3150    3.4670 C   0  0  0  0  0  0  0  0  0  0  0  0
   -4.8260   -5.0470    3.0240 C   0  0  0  0  0  0  0  0  0  0  0  0
   -5.6950   -4.2710    2.2450 C   0  0  0  0  0  0  0  0  0  0  0  0
   -5.1700   -2.9850    1.7100 C   0  0  0  0  0  0  0  0  0  0  0  0
   -4.0270   -2.6540    2.0080 O   0  0  0  0  0  0  0  0  0  0  0  0
   -6.9520   -4.7810    1.9150 C   0  0  0  0  0  0  0  0  0  0  0  0
   -7.3200   -6.0520    2.3600 C   0  0  0  0  0  0  0  0  0  0  0  0
   -8.1790   -8.3510    4.1170 C   0  0  0  0  0  0  0  0  0  0  0  0
   -8.6310   -9.5930    4.5770 C   0  0  0  0  0  0  0  0  0  0  0  0
   -9.9900   -9.7550    5.1130 C   0  0  0  0  0  0  0  0  0  0  0  0
  -10.5580   -8.7820    5.9510 C   0  0  0  0  0  0  0  0  0  0  0  0
  -11.8470   -8.9350    6.4590 C   0  0  0  0  0  0  0  0  0  0  0  0
  -12.5980  -10.0730    6.1460 C   0  0  0  0  0  0  0  0  0  0  0  0
  -14.0140  -10.1920    6.6530 C   0  0  2  0  0  0  0  0  0  0  0  0
  -14.1100  -11.2920    7.7100 C   0  0  0  0  0  0  0  0  0  0  0  0
  -15.0030  -10.3840    5.5970 N   0  0  0  0  0  0  0  0  0  0  0  0
  -12.0430  -11.0490    5.3110 C   0  0  0  0  0  0  0  0  0  0  0  0
  -10.7600  -10.8840    4.7940 C   0  0  0  0  0  0  0  0  0  0  0  0
   -7.7420  -10.6730    4.5120 C   0  0  0  0  0  0  0  0  0  0  0  0
   -3.7860  -10.9170    4.1510 H   0  0  0  0  0  0  0  0  0  0  0  0
   -3.9360  -12.5960    3.6170 H   0  0  0  0  0  0  0  0  0  0  0  0
   -4.3520  -11.3080    2.4790 H   0  0  0  0  0  0  0  0  0  0  0  0
   -5.0330   -9.1520    3.1360 H   0  0  0  0  0  0  0  0  0  0  0  0
   -4.5070   -6.8850    4.0770 H   0  0  0  0  0  0  0  0  0  0  0  0
   -3.8310   -4.6760    3.2750 H   0  0  0  0  0  0  0  0  0  0  0  0
   -7.6640   -4.2450    1.3080 H   0  0  0  0  0  0  0  0  0  0  0  0
   -8.3010   -6.4320    2.0640 H   0  0  0  0  0  0  0  0  0  0  0  0
   -8.8560   -7.4970    4.1580 H   0  0  0  0  0  0  0  0  0  0  0  0
  -10.0050   -7.8840    6.2160 H   0  0  0  0  0  0  0  0  0  0  0  0
  -12.2680   -8.1440    7.0750 H   0  0  0  0  0  0  0  0  0  0  0  0
  -14.3000   -9.2470    7.1350 H   0  0  0  0  0  0  0  0  0  0  0  0
  -13.8590  -12.2760    7.3000 H   0  0  0  0  0  0  0  0  0  0  0  0
  -13.4250  -11.0910    8.5420 H   0  0  0  0  0  0  0  0  0  0  0  0
  -15.1240  -11.3540    8.1190 H   0  0  0  0  0  0  0  0  0  0  0  0
  -15.8840  -10.7160    5.9480 H   0  0  0  0  0  0  0  0  0  0  0  0
  -12.6300  -11.9150    5.0140 H   0  0  0  0  0  0  0  0  0  0  0  0
  -10.3790  -11.6360    4.1070 H   0  0  0  0  0  0  0  0  0  0  0  0
   -8.0490  -11.6520    4.8750 H   0  0  0  0  0  0  0  0  0  0  0  0
  -19.9500   -2.2170    3.1980 C   0  0  0  0  0  0  0  0  0  0  0  0
  -21.1570   -2.9650    3.1550 O   0  0  0  0  0  0  0  0  0  0  0  0
  -21.0570   -4.3170    3.3210 C   0  0  0  0  0  0  0  0  0  0  0  0
  -19.8820   -5.0380    3.5400 C   0  0  0  0  0  0  0  0  0  0  0  0
  -19.9120   -6.4330    3.6840 C   0  0  0  0  0  0  0  0  0  0  0  0
  -18.6850   -7.2190    3.9070 C   0  0  0  0  0  0  0  0  0  0  0  0
  -17.5250   -6.9720    3.1610 C   0  0  0  0  0  0  0  0  0  0  0  0
  -16.3720   -7.7340    3.3770 C   0  0  0  0  0  0  0  0  0  0  0  0
  -16.3570   -8.7610    4.3270 C   0  0  0  0  0  0  0  0  0  0  0  0
  -15.0580   -9.4430    4.5760 C   0  0  0  0  0  0  0  0  0  0  0  0
  -14.0850   -9.0950    3.9160 O   0  0  0  0  0  0  0  0  0  0  0  0
  -17.5130   -9.0180    5.0700 C   0  0  0  0  0  0  0  0  0  0  0  0
  -18.6600   -8.2470    4.8560 C   0  0  0  0  0  0  0  0  0  0  0  0
  -21.1530   -7.0870    3.6160 C   0  0  0  0  0  0  0  0  0  0  0  0
  -22.3490   -6.3880    3.4020 C   0  0  0  0  0  0  0  0  0  0  0  0
  -23.6330   -7.0980    3.3340 C   0  0  0  0  0  0  0  0  0  0  0  0
  -23.7540   -8.3120    2.6370 C   0  0  0  0  0  0  0  0  0  0  0  0
  -24.9710   -8.9880    2.5780 C   0  0  0  0  0  0  0  0  0  0  0  0
  -26.1020   -8.4610    3.2100 C   0  0  0  0  0  0  0  0  0  0  0  0
  -27.4000   -9.2300    3.1780 C   0  0  2  0  0  0  0  0  0  0  0  0
  -28.4100   -8.5190    2.2760 C   0  0  0  0  0  0  0  0  0  0  0  0
  -27.9650   -9.4980    4.4980 N   0  0  0  0  0  0  0  0  0  0  0  0
  -25.9930   -7.2530    3.9080 C   0  0  0  0  0  0  0  0  0  0  0  0
  -24.7710   -6.5880    3.9760 C   0  0  0  0  0  0  0  0  0  0  0  0
  -22.2720   -4.9980    3.2530 C   0  0  0  0  0  0  0  0  0  0  0  0
  -19.2610   -2.5300    2.4060 H   0  0  0  0  0  0  0  0  0  0  0  0
  -20.2040   -1.1680    3.0220 H   0  0  0  0  0  0  0  0  0  0  0  0
  -19.4790   -2.2870    4.1830 H   0  0  0  0  0  0  0  0  0  0  0  0
  -18.9270   -4.5280    3.6130 H   0  0  0  0  0  0  0  0  0  0  0  0
  -17.4970   -6.1910    2.4080 H   0  0  0  0  0  0  0  0  0  0  0  0
  -15.4740   -7.5000    2.8040 H   0  0  0  0  0  0  0  0  0  0  0  0
  -17.5660   -9.7810    5.8340 H   0  0  0  0  0  0  0  0  0  0  0  0
  -19.5370   -8.4560    5.4680 H   0  0  0  0  0  0  0  0  0  0  0  0
  -21.1910   -8.1680    3.7330 H   0  0  0  0  0  0  0  0  0  0  0  0
  -22.8950   -8.7510    2.1350 H   0  0  0  0  0  0  0  0  0  0  0  0
  -25.0200   -9.9410    2.0560 H   0  0  0  0  0  0  0  0  0  0  0  0
  -27.2140  -10.2240    2.7480 H   0  0  0  0  0  0  0  0  0  0  0  0
  -28.6700   -7.5270    2.6600 H   0  0  0  0  0  0  0  0  0  0  0  0
  -28.0050   -8.3930    1.2650 H   0  0  0  0  0  0  0  0  0  0  0  0
  -29.3370   -9.0960    2.1970 H   0  0  0  0  0  0  0  0  0  0  0  0
  -28.9280   -9.7790    4.4510 H   0  0  0  0  0  0  0  0  0  0  0  0
  -26.8480   -6.8530    4.4470 H   0  0  0  0  0  0  0  0  0  0  0  0
  -24.7090   -5.6770    4.5670 H   0  0  0  0  0  0  0  0  0  0  0  0
  -23.1790   -4.4230    3.0710 H   0  0  0  0  0  0  0  0  0  0  0  0
  -26.3030  -18.6550    7.7490 C   0  0  0  0  0  0  0  0  0  0  0  0
  -27.6430  -18.7250    8.2110 O   0  0  0  0  0  0  0  0  0  0  0  0
  -28.3950  -17.5840    8.1250 C   0  0  0  0  0  0  0  0  0  0  0  0
  -27.9840  -16.3630    7.5970 C   0  0  0  0  0  0  0  0  0  0  0  0
  -28.8590  -15.2590    7.5690 C   0  0  0  0  0  0  0  0  0  0  0  0
  -28.4430  -13.9560    7.0290 C   0  0  0  0  0  0  0  0  0  0  0  0
  -27.1930  -13.4030    7.3340 C   0  0  0  0  0  0  0  0  0  0  0  0
  -26.8190  -12.1560    6.8300 C   0  0  0  0  0  0  0  0  0  0  0  0
  -27.6910  -11.4230    6.0130 C   0  0  0  0  0  0  0  0  0  0  0  0
  -27.1720  -10.1560    5.4280 C   0  0  0  0  0  0  0  0  0  0  0  0
  -26.0440   -9.7900    5.7420 O   0  0  0  0  0  0  0  0  0  0  0  0
  -28.9410  -11.9610    5.7020 C   0  0  0  0  0  0  0  0  0  0  0  0
  -29.3060  -13.2130    6.2020 C   0  0  0  0  0  0  0  0  0  0  0  0
  -30.1560  -15.4280    8.0810 C   0  0  0  0  0  0  0  0  0  0  0  0
  -30.5930  -16.6470    8.6180 C   0  0  0  0  0  0  0  0  0  0  0  0
  -31.9520  -16.7980    9.1570 C   0  0  0  0  0  0  0  0  0  0  0  0
  -32.5260  -15.7970    9.9580 C   0  0  0  0  0  0  0  0  0  0  0  0
  -33.8250  -15.9240   10.4440 C   0  0  0  0  0  0  0  0  0  0  0  0
  -34.5840  -17.0620   10.1450 C   0  0  0  0  0  0  0  0  0  0  0  0
  -36.0300  -17.1240   10.5880 C   0  0  2  0  0  0  0  0  0  0  0  0
  -36.1740  -18.1790   11.6870 C   0  0  0  0  0  0  0  0  0  0  0  0
  -36.9730  -17.3410    9.4930 N   0  0  0  0  0  0  0  0  0  0  0  0
  -34.0150  -18.0760    9.3650 C   0  0  0  0  0  0  0  0  0  0  0  0
  -32.7200  -17.9370    8.8680 C   0  0  0  0  0  0  0  0  0  0  0  0
  -29.6870  -17.7170    8.6290 C   0  0  0  0  0  0  0  0  0  0  0  0
  -25.7240  -17.9260    8.3260 H   0  0  0  0  0  0  0  0  0  0  0  0
  -25.8490  -19.6390    7.9030 H   0  0  0  0  0  0  0  0  0  0  0  0
  -26.2660  -18.4330    6.6780 H   0  0  0  0  0  0  0  0  0  0  0  0
  -26.9860  -16.2440    7.1870 H   0  0  0  0  0  0  0  0  0  0  0  0
  -26.4910  -13.9340    7.9750 H   0  0  0  0  0  0  0  0  0  0  0  0
  -25.8290  -11.7670    7.0650 H   0  0  0  0  0  0  0  0  0  0  0  0
  -29.6550  -11.4570    5.0630 H   0  0  0  0  0  0  0  0  0  0  0  0
  -30.2780  -13.6150    5.9240 H   0  0  0  0  0  0  0  0  0  0  0  0
  -30.8450  -14.5850    8.0630 H   0  0  0  0  0  0  0  0  0  0  0  0
  -31.9720  -14.8910   10.1940 H   0  0  0  0  0  0  0  0  0  0  0  0
  -34.2560  -15.1080   11.0190 H   0  0  0  0  0  0  0  0  0  0  0  0
  -36.3150  -16.1540   11.0170 H   0  0  0  0  0  0  0  0  0  0  0  0
  -35.9210  -19.1830   11.3280 H   0  0  0  0  0  0  0  0  0  0  0  0
  -35.5070  -17.9510   12.5280 H   0  0  0  0  0  0  0  0  0  0  0  0
  -37.1980  -18.2130   12.0710 H   0  0  0  0  0  0  0  0  0  0  0  0
  -37.9020  -17.6240    9.7700 H   0  0  0  0  0  0  0  0  0  0  0  0
  -34.5990  -18.9520    9.0900 H   0  0  0  0  0  0  0  0  0  0  0  0
  -32.3270  -18.7170    8.2190 H   0  0  0  0  0  0  0  0  0  0  0  0
  -29.9850  -18.6740    9.0520 H   0  0  0  0  0  0  0  0  0  0  0  0
    7.1630   -4.6780    0.7660 C   0  0  0  0  0  0  0  0  0  0  0  0
    6.6780   -3.4740    1.3490 O   0  0  0  0  0  0  0  0  0  0  0  0
    6.4270   -5.0010    0.0220 H   0  0  0  0  0  0  0  0  0  0  0  0
    7.2190   -5.4410    1.5460 H   0  0  0  0  0  0  0  0  0  0  0  0
    8.1450   -4.5670    0.2990 H   0  0  0  0  0  0  0  0  0  0  0  0
  -34.1880  -14.8610    6.7730 C   0  0  0  0  0  0  0  0  0  0  0  0
  -35.7050  -15.0550    6.9390 C   0  0  0  0  0  0  0  0  0  0  0  0
  -36.3200  -13.7220    7.3680 C   0  0  0  0  0  0  0  0  0  0  0  0
  -36.2660  -15.5630    5.6100 C   0  0  0  0  0  0  0  0  0  0  0  0
  -35.8620  -16.0190    8.0070 O   0  0  0  0  0  0  0  0  0  0  0  0
  -37.0580  -16.5100    8.3990 C   0  0  0  0  0  0  0  0  0  0  0  0
  -38.1350  -16.2810    7.8690 O   0  0  0  0  0  0  0  0  0  0  0  0
  -33.9530  -14.1420    5.9810 H   0  0  0  0  0  0  0  0  0  0  0  0
  -33.7350  -14.4960    7.7000 H   0  0  0  0  0  0  0  0  0  0  0  0
  -33.6930  -15.8100    6.5330 H   0  0  0  0  0  0  0  0  0  0  0  0
  -35.9500  -13.4330    8.3600 H   0  0  0  0  0  0  0  0  0  0  0  0
  -37.4080  -13.7900    7.4490 H   0  0  0  0  0  0  0  0  0  0  0  0
  -36.0780  -12.9230    6.6620 H   0  0  0  0  0  0  0  0  0  0  0  0
  -35.8520  -16.5500    5.3660 H   0  0  0  0  0  0  0  0  0  0  0  0
  -37.3530  -15.6730    5.6360 H   0  0  0  0  0  0  0  0  0  0  0  0
  -36.0250  -14.8760    4.7920 H   0  0  0  0  0  0  0  0  0  0  0  0
  1 28  1  0  0  0  0
  1  2  1  0  0  0  0
  2  3  1  0  0  0  0
  3  4  2  0  0  0  0
  4  5  1  0  0  0  0
  4 29  1  0  0  0  0
  5  6  1  0  0  0  0
  6 13  2  0  0  0  0
  7  8  2  0  0  0  0
  6  7  1  0  0  0  0
  8  9  1  0  0  0  0
  9 10  1  0  0  0  0
  9 12  2  0  0  0  0
 10178  1  0  0  0  0
 10 11  2  0  0  0  0
 12 32  1  0  0  0  0
 12 13  1  0  0  0  0
 13 33  1  0  0  0  0
 14 34  1  0  0  0  0
  5 14  2  0  0  0  0
 14 15  1  0  0  0  0
 15 16  1  0  0  0  0
 16 24  1  0  0  0  0
 16 17  2  0  0  0  0
 17 18  1  0  0  0  0
 18 19  2  0  0  0  0
 19 23  1  0  0  0  0
 20 37  1  0  0  0  0
 19 20  1  0  0  0  0
 20 22  1  0  0  0  0
 21 38  1  0  0  0  0
 20 21  1  0  0  0  0
 22 54  1  0  0  0  0
 23 24  2  0  0  0  0
 23 42  1  0  0  0  0
 24 43  1  0  0  0  0
 15 25  2  0  0  0  0
  3 25  1  0  0  0  0
  1 26  1  0  0  0  0
  1 27  1  0  0  0  0
  7 30  1  0  0  0  0
  8 31  1  0  0  0  0
 17 35  1  0  0  0  0
 18 36  1  0  0  0  0
 21 39  1  0  0  0  0
 21 40  1  0  0  0  0
 22 41  1  0  0  0  0
 25 44  1  0  0  0  0
 45 71  1  0  0  0  0
 45 46  1  0  0  0  0
 45 70  1  0  0  0  0
 46 47  1  0  0  0  0
 47 69  2  0  0  0  0
 48 49  2  0  0  0  0
 47 48  1  0  0  0  0
 49 58  1  0  0  0  0
 50 51  2  0  0  0  0
 49 50  1  0  0  0  0
 51 74  1  0  0  0  0
 52 75  1  0  0  0  0
 51 52  1  0  0  0  0
 52 53  2  0  0  0  0
 54 55  2  0  0  0  0
 53 54  1  0  0  0  0
 53 56  1  0  0  0  0
 56 57  2  0  0  0  0
 50 57  1  0  0  0  0
 58 78  1  0  0  0  0
 58 59  2  0  0  0  0
 59 60  1  0  0  0  0
 60 61  2  0  0  0  0
 61 79  1  0  0  0  0
 61 62  1  0  0  0  0
 62 80  1  0  0  0  0
 62 63  2  0  0  0  0
 63 64  1  0  0  0  0
 64 81  1  0  0  0  0
 64 65  1  0  0  0  0
 65 84  1  0  0  0  0
 65 83  1  0  0  0  0
 66 85  1  0  0  0  0
 64 66  1  0  0  0  0
 63 67  1  0  0  0  0
 60 68  1  0  0  0  0
 67 68  2  0  0  0  0
 59 69  1  0  0  0  0
 69 88  1  0  0  0  0
 45 72  1  0  0  0  0
 48 73  1  0  0  0  0
 56 76  1  0  0  0  0
 57 77  1  0  0  0  0
 65 82  1  0  0  0  0
 67 86  1  0  0  0  0
 68 87  1  0  0  0  0
 89116  1  0  0  0  0
 89 90  1  0  0  0  0
 90 91  1  0  0  0  0
 91 92  2  0  0  0  0
 92117  1  0  0  0  0
 92 93  1  0  0  0  0
 93 94  1  0  0  0  0
 94101  2  0  0  0  0
 95 96  2  0  0  0  0
 94 95  1  0  0  0  0
 96 97  1  0  0  0  0
 97 98  1  0  0  0  0
 97100  2  0  0  0  0
 66 98  1  0  0  0  0
 98 99  2  0  0  0  0
100120  1  0  0  0  0
100101  1  0  0  0  0
101121  1  0  0  0  0
 93102  2  0  0  0  0
102122  1  0  0  0  0
102103  1  0  0  0  0
103104  1  0  0  0  0
104112  1  0  0  0  0
104105  2  0  0  0  0
105106  1  0  0  0  0
106107  2  0  0  0  0
107111  1  0  0  0  0
108125  1  0  0  0  0
107108  1  0  0  0  0
108110  1  0  0  0  0
109126  1  0  0  0  0
108109  1  0  0  0  0
110142  1  0  0  0  0
111112  2  0  0  0  0
111130  1  0  0  0  0
112131  1  0  0  0  0
 91113  1  0  0  0  0
103113  2  0  0  0  0
 89114  1  0  0  0  0
 89115  1  0  0  0  0
 95118  1  0  0  0  0
 96119  1  0  0  0  0
105123  1  0  0  0  0
106124  1  0  0  0  0
109127  1  0  0  0  0
109128  1  0  0  0  0
110129  1  0  0  0  0
113132  1  0  0  0  0
133159  1  0  0  0  0
133134  1  0  0  0  0
133158  1  0  0  0  0
134135  1  0  0  0  0
135157  2  0  0  0  0
135136  1  0  0  0  0
136137  2  0  0  0  0
137146  1  0  0  0  0
138139  2  0  0  0  0
137138  1  0  0  0  0
139162  1  0  0  0  0
140163  1  0  0  0  0
139140  1  0  0  0  0
140141  2  0  0  0  0
142143  2  0  0  0  0
141142  1  0  0  0  0
141144  1  0  0  0  0
144145  2  0  0  0  0
138145  1  0  0  0  0
146147  2  0  0  0  0
147157  1  0  0  0  0
147148  1  0  0  0  0
148149  2  0  0  0  0
149167  1  0  0  0  0
149150  1  0  0  0  0
150168  1  0  0  0  0
150151  2  0  0  0  0
151152  1  0  0  0  0
152169  1  0  0  0  0
152153  1  0  0  0  0
153172  1  0  0  0  0
153171  1  0  0  0  0
154173  1  0  0  0  0
152154  1  0  0  0  0
151155  1  0  0  0  0
148156  1  0  0  0  0
155156  2  0  0  0  0
157176  1  0  0  0  0
133160  1  0  0  0  0
136161  1  0  0  0  0
144164  1  0  0  0  0
145165  1  0  0  0  0
146166  1  0  0  0  0
153170  1  0  0  0  0
155174  1  0  0  0  0
156175  1  0  0  0  0
177178  1  0  0  0  0
177180  1  0  0  0  0
177179  1  0  0  0  0
177181  1  0  0  0  0
182183  1  0  0  0  0
182190  1  0  0  0  0
183184  1  0  0  0  0
183186  1  0  0  0  0
184193  1  0  0  0  0
184192  1  0  0  0  0
185196  1  0  0  0  0
183185  1  0  0  0  0
186187  1  0  0  0  0
154187  1  0  0  0  0
187188  2  0  0  0  0
182189  1  0  0  0  0
182191  1  0  0  0  0
184194  1  0  0  0  0
185195  1  0  0  0  0
185197  1  0  0  0  0
M  END
> <atom.dprop.PartialCharge>
0.110240 -0.323230 0.121440 -0.192440 -0.008660 -0.006490 -0.132780 -0.067570 -0.132360 0.648970 -0.542690 -0.067570 -0.132780 -0.137670 -0.006270 -0.034790 -0.116000 -0.121520 -0.094980 0.150280 -0.109870 -0.570290 -0.121520 -0.116000 -0.136980 0.044710 0.044710 0.044710 0.142430 0.141040 0.155860 0.155860 0.141040 0.140330 0.137870 0.135970 0.088560 0.045110 0.045110 0.045110 0.310740 0.135970 0.137870 0.154560 0.112810 -0.327100 0.125200 -0.136430 -0.012520 -0.015610 -0.128270 -0.091780 -0.139610 0.675740 -0.606200 -0.091780 -0.128270 -0.142400 -0.002600 -0.033820 -0.117940 -0.120880 -0.097170 0.152600 -0.109010 -0.572210 -0.120880 -0.117940 -0.190150 0.045850 0.045850 0.045850 0.155870 0.141940 0.147860 0.147860 0.141940 0.138300 0.137050 0.137460 0.084990 0.045800 0.045800 0.045800 0.312530 0.137460 0.137050 0.142750 0.113640 -0.328820 0.122380 -0.140050 -0.013370 -0.012870 -0.128320 -0.091840 -0.139700 0.675310 -0.609150 -0.091840 -0.128320 -0.142460 0.001290 -0.036410 -0.117090 -0.113700 -0.105000 0.148010 -0.102410 -0.561740 -0.113700 -0.117090 -0.192300 0.045610 0.045610 0.045610 0.153660 0.141390 0.147980 0.147980 0.141390 0.140900 0.134590 0.135900 0.087350 0.046070 0.046070 0.046070 0.307250 0.135900 0.134590 0.143240 0.113020 -0.325170 0.126190 -0.190230 -0.009930 -0.010770 -0.128220 -0.092140 -0.139310 0.675520 -0.605770 -0.092140 -0.128220 -0.141400 -0.005970 -0.032300 -0.116600 -0.118500 -0.097750 0.166400 -0.110730 -0.562880 -0.118500 -0.116600 -0.137010 0.045880 0.045880 0.045880 0.141130 0.139160 0.144780 0.144780 0.139160 0.139220 0.138280 0.136870 0.082110 0.046810 0.046810 0.046810 0.329710 0.136870 0.138280 0.154250 0.126390 -0.439710 0.049930 0.049930 0.049930 -0.114650 0.186570 -0.114650 -0.114650 -0.449900 0.754150 -0.603980 0.051950 0.051950 0.051950 0.051950 0.051950 0.051950 0.051950 0.051950 0.051950

$$$$
