pmp_tetramer.pdb
 OpenBabel09092515193D

197208  0  0  1  0  0  0  0  0999 V2000
    2.0870    4.9870   -0.1590 C   0  0  0  0  0  0  0  0  0  0  0  0
    0.8610    4.2510   -0.2070 O   0  0  0  0  0  0  0  0  0  0  0  0
    0.9570    2.8830   -0.1340 C   0  0  0  0  0  0  0  0  0  0  0  0
    2.1300    2.1350    0.0010 C   0  0  0  0  0  0  0  0  0  0  0  0
    2.0940    0.7370    0.0660 C   0  0  0  0  0  0  0  0  0  0  0  0
    3.3330   -0.0530    0.2240 C   0  0  0  0  0  0  0  0  0  0  0  0
    4.4980    0.2620   -0.4960 C   0  0  0  0  0  0  0  0  0  0  0  0
    5.6800   -0.4700   -0.3280 C   0  0  0  0  0  0  0  0  0  0  0  0
    5.7180   -1.5450    0.5630 C   0  0  0  0  0  0  0  0  0  0  0  0
    6.9630   -2.3530    0.6420 C   0  0  0  0  0  0  0  0  0  0  0  0
    7.9650   -2.1360   -0.0190 O   0  0  0  0  0  0  0  0  0  0  0  0
    4.5630   -1.8870    1.2740 C   0  0  0  0  0  0  0  0  0  0  0  0
    3.3880   -1.1480    1.1060 C   0  0  0  0  0  0  0  0  0  0  0  0
    0.8400    0.1040   -0.0160 C   0  0  0  0  0  0  0  0  0  0  0  0
   -0.3570    0.8280   -0.1520 C   0  0  0  0  0  0  0  0  0  0  0  0
   -1.6570    0.1410   -0.2440 C   0  0  0  0  0  0  0  0  0  0  0  0
   -1.8050   -1.0330   -1.0060 C   0  0  0  0  0  0  0  0  0  0  0  0
   -3.0320   -1.6880   -1.0900 C   0  0  0  0  0  0  0  0  0  0  0  0
   -4.1500   -1.1770   -0.4240 C   0  0  0  0  0  0  0  0  0  0  0  0
   -5.4530   -1.9330   -0.4820 C   0  0  2  0  0  0  0  0  0  0  0  0
   -6.4690   -1.1630   -1.3270 C   0  0  0  0  0  0  0  0  0  0  0  0
   -5.9890   -2.2710    0.8320 N   0  0  0  0  0  0  0  0  0  0  0  0
   -4.0200   -0.0110    0.3380 C   0  0  0  0  0  0  0  0  0  0  0  0
   -2.7860    0.6310    0.4330 C   0  0  0  0  0  0  0  0  0  0  0  0
   -0.2730    2.2250   -0.2090 C   0  0  0  0  0  0  0  0  0  0  0  0
    2.7290    4.7270   -1.0130 H   0  0  0  0  0  0  0  0  0  0  0  0
    1.8430    6.0470   -0.2420 H   0  0  0  0  0  0  0  0  0  0  0  0
    2.6000    4.8350    0.7890 H   0  0  0  0  0  0  0  0  0  0  0  0
    3.0880    2.6410    0.0800 H   0  0  0  0  0  0  0  0  0  0  0  0
    4.4940    1.0780   -1.2160 H   0  0  0  0  0  0  0  0  0  0  0  0
    6.5600   -0.2070   -0.9120 H   0  0  0  0  0  0  0  0  0  0  0  0
    4.5520   -2.7350    1.9560 H   0  0  0  0  0  0  0  0  0  0  0  0
    2.5120   -1.4380    1.6830 H   0  0  0  0  0  0  0  0  0  0  0  0
    0.7910   -0.9840    0.0370 H   0  0  0  0  0  0  0  0  0  0  0  0
   -0.9600   -1.4550   -1.5410 H   0  0  0  0  0  0  0  0  0  0  0  0
   -3.0990   -2.6140   -1.6530 H   0  0  0  0  0  0  0  0  0  0  0  0
   -5.2850   -2.9020   -0.9720 H   0  0  0  0  0  0  0  0  0  0  0  0
   -6.7280   -0.1990   -0.8770 H   0  0  0  0  0  0  0  0  0  0  0  0
   -6.0670   -0.9690   -2.3290 H   0  0  0  0  0  0  0  0  0  0  0  0
   -7.3960   -1.7340   -1.4430 H   0  0  0  0  0  0  0  0  0  0  0  0
   -6.9530   -2.5480    0.7900 H   0  0  0  0  0  0  0  0  0  0  0  0
   -4.8660    0.3670    0.9080 H   0  0  0  0  0  0  0  0  0  0  0  0
   -2.7110    1.5060    1.0740 H   0  0  0  0  0  0  0  0  0  0  0  0
   -1.1730    2.8190   -0.3200 H   0  0  0  0  0  0  0  0  0  0  0  0
   -4.3890  -11.6170    3.5370 C   0  0  0  0  0  0  0  0  0  0  0  0
   -5.7220  -11.6830    4.0230 O   0  0  0  0  0  0  0  0  0  0  0  0
   -6.4530  -10.5280    4.0090 C   0  0  0  0  0  0  0  0  0  0  0  0
   -6.0250   -9.2840    3.5500 C   0  0  0  0  0  0  0  0  0  0  0  0
   -6.8840   -8.1690    3.5890 C   0  0  0  0  0  0  0  0  0  0  0  0
   -6.4550   -6.8480    3.1130 C   0  0  0  0  0  0  0  0  0  0  0  0
   -5.1870   -6.3350    3.4210 C   0  0  0  0  0  0  0  0  0  0  0  0
   -4.8040   -5.0700    2.9770 C   0  0  0  0  0  0  0  0  0  0  0  0
   -5.6840   -4.2820    2.2210 C   0  0  0  0  0  0  0  0  0  0  0  0
   -5.1730   -2.9870    1.7010 C   0  0  0  0  0  0  0  0  0  0  0  0
   -4.0350   -2.6480    2.0060 O   0  0  0  0  0  0  0  0  0  0  0  0
   -6.9480   -4.7850    1.9080 C   0  0  0  0  0  0  0  0  0  0  0  0
   -7.3220   -6.0510    2.3500 C   0  0  0  0  0  0  0  0  0  0  0  0
   -8.1820   -8.3420    4.0960 C   0  0  0  0  0  0  0  0  0  0  0  0
   -8.6340   -9.5870    4.5700 C   0  0  0  0  0  0  0  0  0  0  0  0
   -9.9990   -9.7390    5.0960 C   0  0  0  0  0  0  0  0  0  0  0  0
  -10.5660   -8.7690    5.9380 C   0  0  0  0  0  0  0  0  0  0  0  0
  -11.8540   -8.9210    6.4440 C   0  0  0  0  0  0  0  0  0  0  0  0
  -12.6060  -10.0550    6.1220 C   0  0  0  0  0  0  0  0  0  0  0  0
  -14.0190  -10.1750    6.6320 C   0  0  2  0  0  0  0  0  0  0  0  0
  -14.0960  -11.2600    7.7070 C   0  0  0  0  0  0  0  0  0  0  0  0
  -15.0030  -10.3890    5.5770 N   0  0  0  0  0  0  0  0  0  0  0  0
  -12.0540  -11.0290    5.2830 C   0  0  0  0  0  0  0  0  0  0  0  0
  -10.7710  -10.8650    4.7680 C   0  0  0  0  0  0  0  0  0  0  0  0
   -7.7500  -10.6640    4.5130 C   0  0  0  0  0  0  0  0  0  0  0  0
   -3.7770  -10.9510    4.1530 H   0  0  0  0  0  0  0  0  0  0  0  0
   -3.9640  -12.6240    3.6100 H   0  0  0  0  0  0  0  0  0  0  0  0
   -4.3630  -11.3210    2.4840 H   0  0  0  0  0  0  0  0  0  0  0  0
   -5.0240   -9.1590    3.1410 H   0  0  0  0  0  0  0  0  0  0  0  0
   -4.4840   -6.9110    4.0190 H   0  0  0  0  0  0  0  0  0  0  0  0
   -3.8030   -4.7080    3.2110 H   0  0  0  0  0  0  0  0  0  0  0  0
   -7.6660   -4.2390    1.3090 H   0  0  0  0  0  0  0  0  0  0  0  0
   -8.3110   -6.4160    2.0750 H   0  0  0  0  0  0  0  0  0  0  0  0
   -8.8570   -7.4960    4.1270 H   0  0  0  0  0  0  0  0  0  0  0  0
  -10.0100   -7.8750    6.2090 H   0  0  0  0  0  0  0  0  0  0  0  0
  -12.2750   -8.1370    7.0680 H   0  0  0  0  0  0  0  0  0  0  0  0
  -14.3140   -9.2260    7.0990 H   0  0  0  0  0  0  0  0  0  0  0  0
  -13.8470  -12.2490    7.3080 H   0  0  0  0  0  0  0  0  0  0  0  0
  -13.3960  -11.0420    8.5220 H   0  0  0  0  0  0  0  0  0  0  0  0
  -15.1020  -11.3190    8.1350 H   0  0  0  0  0  0  0  0  0  0  0  0
  -15.8840  -10.7050    5.9400 H   0  0  0  0  0  0  0  0  0  0  0  0
  -12.6440  -11.8920    4.9820 H   0  0  0  0  0  0  0  0  0  0  0  0
  -10.3900  -11.6160    4.0800 H   0  0  0  0  0  0  0  0  0  0  0  0
   -8.0570  -11.6380    4.8780 H   0  0  0  0  0  0  0  0  0  0  0  0
  -19.9540   -2.2140    3.2260 C   0  0  0  0  0  0  0  0  0  0  0  0
  -21.1580   -2.9700    3.1970 O   0  0  0  0  0  0  0  0  0  0  0  0
  -21.0570   -4.3210    3.3460 C   0  0  0  0  0  0  0  0  0  0  0  0
  -19.8830   -5.0480    3.5470 C   0  0  0  0  0  0  0  0  0  0  0  0
  -19.9150   -6.4470    3.6880 C   0  0  0  0  0  0  0  0  0  0  0  0
  -18.6870   -7.2280    3.8990 C   0  0  0  0  0  0  0  0  0  0  0  0
  -17.5240   -6.9680    3.1650 C   0  0  0  0  0  0  0  0  0  0  0  0
  -16.3660   -7.7220    3.3700 C   0  0  0  0  0  0  0  0  0  0  0  0
  -16.3510   -8.7640    4.3080 C   0  0  0  0  0  0  0  0  0  0  0  0
  -15.0590   -9.4600    4.5420 C   0  0  0  0  0  0  0  0  0  0  0  0
  -14.0940   -9.1370    3.8630 O   0  0  0  0  0  0  0  0  0  0  0  0
  -17.5070   -9.0300    5.0470 C   0  0  0  0  0  0  0  0  0  0  0  0
  -18.6570   -8.2660    4.8430 C   0  0  0  0  0  0  0  0  0  0  0  0
  -21.1590   -7.0970    3.6240 C   0  0  0  0  0  0  0  0  0  0  0  0
  -22.3530   -6.3980    3.4220 C   0  0  0  0  0  0  0  0  0  0  0  0
  -23.6420   -7.1040    3.3460 C   0  0  0  0  0  0  0  0  0  0  0  0
  -23.7600   -8.3180    2.6480 C   0  0  0  0  0  0  0  0  0  0  0  0
  -24.9750   -8.9940    2.5790 C   0  0  0  0  0  0  0  0  0  0  0  0
  -26.1110   -8.4650    3.2000 C   0  0  0  0  0  0  0  0  0  0  0  0
  -27.4020   -9.2420    3.1680 C   0  0  2  0  0  0  0  0  0  0  0  0
  -28.4150   -8.5410    2.2620 C   0  0  0  0  0  0  0  0  0  0  0  0
  -27.9570   -9.5070    4.4920 N   0  0  0  0  0  0  0  0  0  0  0  0
  -26.0080   -7.2560    3.8980 C   0  0  0  0  0  0  0  0  0  0  0  0
  -24.7860   -6.5920    3.9780 C   0  0  0  0  0  0  0  0  0  0  0  0
  -22.2770   -5.0020    3.2850 C   0  0  0  0  0  0  0  0  0  0  0  0
  -19.2800   -2.5070    2.4150 H   0  0  0  0  0  0  0  0  0  0  0  0
  -20.2220   -1.1640    3.0720 H   0  0  0  0  0  0  0  0  0  0  0  0
  -19.4610   -2.2910    4.2000 H   0  0  0  0  0  0  0  0  0  0  0  0
  -18.9260   -4.5400    3.6090 H   0  0  0  0  0  0  0  0  0  0  0  0
  -17.5010   -6.1760    2.4210 H   0  0  0  0  0  0  0  0  0  0  0  0
  -15.4690   -7.4770    2.8050 H   0  0  0  0  0  0  0  0  0  0  0  0
  -17.5570   -9.8000    5.8050 H   0  0  0  0  0  0  0  0  0  0  0  0
  -19.5320   -8.4880    5.4500 H   0  0  0  0  0  0  0  0  0  0  0  0
  -21.1980   -8.1790    3.7340 H   0  0  0  0  0  0  0  0  0  0  0  0
  -22.8990   -8.7600    2.1530 H   0  0  0  0  0  0  0  0  0  0  0  0
  -25.0220   -9.9490    2.0620 H   0  0  0  0  0  0  0  0  0  0  0  0
  -27.2130  -10.2370    2.7420 H   0  0  0  0  0  0  0  0  0  0  0  0
  -28.6660   -7.5390    2.6250 H   0  0  0  0  0  0  0  0  0  0  0  0
  -28.0160   -8.4390    1.2460 H   0  0  0  0  0  0  0  0  0  0  0  0
  -29.3480   -9.1130    2.1980 H   0  0  0  0  0  0  0  0  0  0  0  0
  -28.9170   -9.8000    4.4460 H   0  0  0  0  0  0  0  0  0  0  0  0
  -26.8680   -6.8580    4.4320 H   0  0  0  0  0  0  0  0  0  0  0  0
  -24.7300   -5.6840    4.5730 H   0  0  0  0  0  0  0  0  0  0  0  0
  -23.1810   -4.4240    3.1150 H   0  0  0  0  0  0  0  0  0  0  0  0
  -26.3180  -18.6430    7.7430 C   0  0  0  0  0  0  0  0  0  0  0  0
  -27.6600  -18.7070    8.2070 O   0  0  0  0  0  0  0  0  0  0  0  0
  -28.4090  -17.5670    8.1270 C   0  0  0  0  0  0  0  0  0  0  0  0
  -27.9900  -16.3400    7.6160 C   0  0  0  0  0  0  0  0  0  0  0  0
  -28.8620  -15.2390    7.5830 C   0  0  0  0  0  0  0  0  0  0  0  0
  -28.4360  -13.9380    7.0460 C   0  0  0  0  0  0  0  0  0  0  0  0
  -27.1800  -13.3930    7.3510 C   0  0  0  0  0  0  0  0  0  0  0  0
  -26.7960  -12.1520    6.8360 C   0  0  0  0  0  0  0  0  0  0  0  0
  -27.6630  -11.4220    6.0120 C   0  0  0  0  0  0  0  0  0  0  0  0
  -27.1530  -10.1550    5.4220 C   0  0  0  0  0  0  0  0  0  0  0  0
  -26.0290   -9.7790    5.7360 O   0  0  0  0  0  0  0  0  0  0  0  0
  -28.9140  -11.9570    5.7000 C   0  0  0  0  0  0  0  0  0  0  0  0
  -29.2890  -13.1990    6.2100 C   0  0  0  0  0  0  0  0  0  0  0  0
  -30.1660  -15.4080    8.0770 C   0  0  0  0  0  0  0  0  0  0  0  0
  -30.6140  -16.6260    8.6020 C   0  0  0  0  0  0  0  0  0  0  0  0
  -31.9780  -16.7770    9.1340 C   0  0  0  0  0  0  0  0  0  0  0  0
  -32.5650  -15.7720    9.9220 C   0  0  0  0  0  0  0  0  0  0  0  0
  -33.8600  -15.9090   10.4170 C   0  0  0  0  0  0  0  0  0  0  0  0
  -34.6000  -17.0630   10.1400 C   0  0  0  0  0  0  0  0  0  0  0  0
  -36.0430  -17.1410   10.5870 C   0  0  2  0  0  0  0  0  0  0  0  0
  -36.1590  -18.1920   11.6940 C   0  0  0  0  0  0  0  0  0  0  0  0
  -36.9760  -17.3620    9.4860 N   0  0  0  0  0  0  0  0  0  0  0  0
  -34.0250  -18.0780    9.3650 C   0  0  0  0  0  0  0  0  0  0  0  0
  -32.7350  -17.9280    8.8600 C   0  0  0  0  0  0  0  0  0  0  0  0
  -29.7090  -17.6950    8.6150 C   0  0  0  0  0  0  0  0  0  0  0  0
  -25.7310  -17.9250    8.3260 H   0  0  0  0  0  0  0  0  0  0  0  0
  -25.8710  -19.6310    7.8860 H   0  0  0  0  0  0  0  0  0  0  0  0
  -26.2780  -18.4120    6.6740 H   0  0  0  0  0  0  0  0  0  0  0  0
  -26.9850  -16.2200    7.2230 H   0  0  0  0  0  0  0  0  0  0  0  0
  -26.4860  -13.9250    7.9980 H   0  0  0  0  0  0  0  0  0  0  0  0
  -25.8030  -11.7680    7.0720 H   0  0  0  0  0  0  0  0  0  0  0  0
  -29.6210  -11.4590    5.0510 H   0  0  0  0  0  0  0  0  0  0  0  0
  -30.2640  -13.5950    5.9290 H   0  0  0  0  0  0  0  0  0  0  0  0
  -30.8570  -14.5630    8.0480 H   0  0  0  0  0  0  0  0  0  0  0  0
  -32.0290  -14.8520   10.1380 H   0  0  0  0  0  0  0  0  0  0  0  0
  -34.3060  -15.0890   10.9750 H   0  0  0  0  0  0  0  0  0  0  0  0
  -36.3420  -16.1750   11.0170 H   0  0  0  0  0  0  0  0  0  0  0  0
  -35.8800  -19.1930   11.3470 H   0  0  0  0  0  0  0  0  0  0  0  0
  -35.4910  -17.9390   12.5280 H   0  0  0  0  0  0  0  0  0  0  0  0
  -37.1770  -18.2480   12.0910 H   0  0  0  0  0  0  0  0  0  0  0  0
  -37.9070  -17.6510    9.7550 H   0  0  0  0  0  0  0  0  0  0  0  0
  -34.6020  -18.9630    9.1010 H   0  0  0  0  0  0  0  0  0  0  0  0
  -32.3380  -18.7090    8.2150 H   0  0  0  0  0  0  0  0  0  0  0  0
  -30.0120  -18.6560    9.0310 H   0  0  0  0  0  0  0  0  0  0  0  0
    7.1420   -4.6570    0.7890 C   0  0  0  0  0  0  0  0  0  0  0  0
    6.7370   -3.4440    1.4140 O   0  0  0  0  0  0  0  0  0  0  0  0
    6.3690   -4.9260    0.0620 H   0  0  0  0  0  0  0  0  0  0  0  0
    7.1860   -5.4420    1.5470 H   0  0  0  0  0  0  0  0  0  0  0  0
    8.1140   -4.5810    0.2930 H   0  0  0  0  0  0  0  0  0  0  0  0
  -34.1720  -14.8390    6.7990 C   0  0  0  0  0  0  0  0  0  0  0  0
  -35.6880  -15.0500    6.9520 C   0  0  0  0  0  0  0  0  0  0  0  0
  -36.3140  -13.7180    7.3690 C   0  0  0  0  0  0  0  0  0  0  0  0
  -36.2290  -15.5630    5.6160 C   0  0  0  0  0  0  0  0  0  0  0  0
  -35.8590  -16.0190    8.0150 O   0  0  0  0  0  0  0  0  0  0  0  0
  -37.0590  -16.5110    8.4030 C   0  0  0  0  0  0  0  0  0  0  0  0
  -38.1330  -16.2720    7.8710 O   0  0  0  0  0  0  0  0  0  0  0  0
  -33.9410  -14.1050    6.0200 H   0  0  0  0  0  0  0  0  0  0  0  0
  -33.7300  -14.4790    7.7330 H   0  0  0  0  0  0  0  0  0  0  0  0
  -33.6630  -15.7770    6.5470 H   0  0  0  0  0  0  0  0  0  0  0  0
  -35.9420  -13.4150    8.3550 H   0  0  0  0  0  0  0  0  0  0  0  0
  -37.4010  -13.7920    7.4510 H   0  0  0  0  0  0  0  0  0  0  0  0
  -36.0770  -12.9260    6.6510 H   0  0  0  0  0  0  0  0  0  0  0  0
  -35.8100  -16.5480    5.3820 H   0  0  0  0  0  0  0  0  0  0  0  0
  -37.3150  -15.6720    5.6270 H   0  0  0  0  0  0  0  0  0  0  0  0
  -35.9730  -14.8770    4.8000 H   0  0  0  0  0  0  0  0  0  0  0  0
  1 28  1  0  0  0  0
  2  1  1  0  0  0  0
  2  3  1  0  0  0  0
  3  4  1  0  0  0  0
  4  5  2  0  0  0  0
  4 29  1  0  0  0  0
  5  6  1  0  0  0  0
  6 13  1  0  0  0  0
  7  8  1  0  0  0  0
  7  6  2  0  0  0  0
  8  9  2  0  0  0  0
  9 10  1  0  0  0  0
  9 12  1  0  0  0  0
 10178  1  0  0  0  0
 11 10  2  0  0  0  0
 12 32  1  0  0  0  0
 13 12  2  0  0  0  0
 13 33  1  0  0  0  0
 14 34  1  0  0  0  0
 14  5  1  0  0  0  0
 15 14  2  0  0  0  0
 16 15  1  0  0  0  0
 16 24  1  0  0  0  0
 17 16  2  0  0  0  0
 18 17  1  0  0  0  0
 18 19  2  0  0  0  0
 19 23  1  0  0  0  0
 20 37  1  6  0  0  0
 20 19  1  0  0  0  0
 20 22  1  0  0  0  0
 21 38  1  0  0  0  0
 21 20  1  0  0  0  0
 22 54  1  0  0  0  0
 23 24  2  0  0  0  0
 23 42  1  0  0  0  0
 24 43  1  0  0  0  0
 25 15  1  0  0  0  0
 25  3  2  0  0  0  0
 26  1  1  0  0  0  0
 27  1  1  0  0  0  0
 30  7  1  0  0  0  0
 31  8  1  0  0  0  0
 35 17  1  0  0  0  0
 36 18  1  0  0  0  0
 39 21  1  0  0  0  0
 40 21  1  0  0  0  0
 41 22  1  0  0  0  0
 44 25  1  0  0  0  0
 45 71  1  0  0  0  0
 45 46  1  0  0  0  0
 45 70  1  0  0  0  0
 47 46  1  0  0  0  0
 47 69  1  0  0  0  0
 48 49  1  0  0  0  0
 48 47  2  0  0  0  0
 49 58  2  0  0  0  0
 50 51  1  0  0  0  0
 50 49  1  0  0  0  0
 51 74  1  0  0  0  0
 52 75  1  0  0  0  0
 52 51  2  0  0  0  0
 53 52  1  0  0  0  0
 54 55  2  0  0  0  0
 54 53  1  0  0  0  0
 56 53  2  0  0  0  0
 56 57  1  0  0  0  0
 57 50  2  0  0  0  0
 58 78  1  0  0  0  0
 58 59  1  0  0  0  0
 59 60  1  0  0  0  0
 60 61  1  0  0  0  0
 61 79  1  0  0  0  0
 61 62  2  0  0  0  0
 62 80  1  0  0  0  0
 63 62  1  0  0  0  0
 63 64  1  0  0  0  0
 64 81  1  1  0  0  0
 64 65  1  0  0  0  0
 65 84  1  0  0  0  0
 65 83  1  0  0  0  0
 66 85  1  0  0  0  0
 66 64  1  0  0  0  0
 67 63  2  0  0  0  0
 68 60  2  0  0  0  0
 68 67  1  0  0  0  0
 69 59  2  0  0  0  0
 69 88  1  0  0  0  0
 72 45  1  0  0  0  0
 73 48  1  0  0  0  0
 76 56  1  0  0  0  0
 77 57  1  0  0  0  0
 82 65  1  0  0  0  0
 86 67  1  0  0  0  0
 87 68  1  0  0  0  0
 89116  1  0  0  0  0
 90 89  1  0  0  0  0
 90 91  1  0  0  0  0
 91 92  1  0  0  0  0
 92117  1  0  0  0  0
 92 93  2  0  0  0  0
 93 94  1  0  0  0  0
 94101  1  0  0  0  0
 95 96  1  0  0  0  0
 95 94  2  0  0  0  0
 96 97  2  0  0  0  0
 97 98  1  0  0  0  0
 97100  1  0  0  0  0
 98 66  1  0  0  0  0
 99 98  2  0  0  0  0
100120  1  0  0  0  0
101100  2  0  0  0  0
101121  1  0  0  0  0
102 93  1  0  0  0  0
102122  1  0  0  0  0
103102  2  0  0  0  0
104103  1  0  0  0  0
104112  1  0  0  0  0
105104  2  0  0  0  0
106105  1  0  0  0  0
106107  2  0  0  0  0
107111  1  0  0  0  0
108125  1  6  0  0  0
108107  1  0  0  0  0
108110  1  0  0  0  0
109126  1  0  0  0  0
109108  1  0  0  0  0
110142  1  0  0  0  0
111112  2  0  0  0  0
111130  1  0  0  0  0
112131  1  0  0  0  0
113 91  2  0  0  0  0
113103  1  0  0  0  0
114 89  1  0  0  0  0
115 89  1  0  0  0  0
118 95  1  0  0  0  0
119 96  1  0  0  0  0
123105  1  0  0  0  0
124106  1  0  0  0  0
127109  1  0  0  0  0
128109  1  0  0  0  0
129110  1  0  0  0  0
132113  1  0  0  0  0
133159  1  0  0  0  0
133134  1  0  0  0  0
133158  1  0  0  0  0
135134  1  0  0  0  0
135157  1  0  0  0  0
136135  2  0  0  0  0
137136  1  0  0  0  0
137146  2  0  0  0  0
138139  1  0  0  0  0
138137  1  0  0  0  0
139162  1  0  0  0  0
140163  1  0  0  0  0
140139  2  0  0  0  0
141140  1  0  0  0  0
142143  2  0  0  0  0
142141  1  0  0  0  0
144141  2  0  0  0  0
144145  1  0  0  0  0
145138  2  0  0  0  0
146147  1  0  0  0  0
147157  2  0  0  0  0
147148  1  0  0  0  0
148149  1  0  0  0  0
149167  1  0  0  0  0
149150  2  0  0  0  0
150168  1  0  0  0  0
151150  1  0  0  0  0
151152  1  0  0  0  0
152169  1  1  0  0  0
152153  1  0  0  0  0
153172  1  0  0  0  0
153171  1  0  0  0  0
154173  1  0  0  0  0
154152  1  0  0  0  0
155151  2  0  0  0  0
156148  2  0  0  0  0
156155  1  0  0  0  0
157176  1  0  0  0  0
160133  1  0  0  0  0
161136  1  0  0  0  0
164144  1  0  0  0  0
165145  1  0  0  0  0
166146  1  0  0  0  0
170153  1  0  0  0  0
174155  1  0  0  0  0
175156  1  0  0  0  0
177178  1  0  0  0  0
177180  1  0  0  0  0
179177  1  0  0  0  0
181177  1  0  0  0  0
182183  1  0  0  0  0
182190  1  0  0  0  0
183184  1  0  0  0  0
183186  1  0  0  0  0
184193  1  0  0  0  0
184192  1  0  0  0  0
185196  1  0  0  0  0
185183  1  0  0  0  0
186187  1  0  0  0  0
187154  1  0  0  0  0
188187  2  0  0  0  0
189182  1  0  0  0  0
191182  1  0  0  0  0
194184  1  0  0  0  0
195185  1  0  0  0  0
197185  1  0  0  0  0
M  END
