pmp_tetramer.pdb
 OpenBabel09052515223D

197208  0  0  1  0  0  0  0  0999 V2000
    2.1140    5.0240   -0.1680 C   0  0  0  0  0  0  0  0  0  0  0  0
    0.8890    4.3070   -0.2370 O   0  0  0  0  0  0  0  0  0  0  0  0
    0.9680    2.9440   -0.1570 C   0  0  0  0  0  0  0  0  0  0  0  0
    2.1350    2.2010    0.0170 C   0  0  0  0  0  0  0  0  0  0  0  0
    2.0980    0.8000    0.0900 C   0  0  0  0  0  0  0  0  0  0  0  0
    3.3380    0.0190    0.2690 C   0  0  0  0  0  0  0  0  0  0  0  0
    4.4930    0.2970   -0.4850 C   0  0  0  0  0  0  0  0  0  0  0  0
    5.6490   -0.4800   -0.3600 C   0  0  0  0  0  0  0  0  0  0  0  0
    5.6660   -1.5730    0.5110 C   0  0  0  0  0  0  0  0  0  0  0  0
    6.8400   -2.4870    0.4630 C   0  0  0  0  0  0  0  0  0  0  0  0
    7.8500   -2.2740   -0.1800 O   0  0  0  0  0  0  0  0  0  0  0  0
    4.5430   -1.8340    1.3060 C   0  0  0  0  0  0  0  0  0  0  0  0
    3.3970   -1.0420    1.1880 C   0  0  0  0  0  0  0  0  0  0  0  0
    0.8440    0.1660   -0.0160 C   0  0  0  0  0  0  0  0  0  0  0  0
   -0.3500    0.8890   -0.1900 C   0  0  0  0  0  0  0  0  0  0  0  0
   -1.6550    0.2050   -0.2920 C   0  0  0  0  0  0  0  0  0  0  0  0
   -1.8120   -0.9430   -1.0830 C   0  0  0  0  0  0  0  0  0  0  0  0
   -3.0390   -1.6060   -1.1590 C   0  0  0  0  0  0  0  0  0  0  0  0
   -4.1520   -1.1370   -0.4490 C   0  0  0  0  0  0  0  0  0  0  0  0
   -5.4510   -1.9120   -0.4960 C   0  0  2  0  0  0  0  0  0  0  0  0
   -6.5140   -1.1290   -1.2700 C   0  0  0  0  0  0  0  0  0  0  0  0
   -5.9600   -2.3220    0.8110 N   0  0  0  0  0  0  0  0  0  0  0  0
   -4.0120    0.0150    0.3320 C   0  0  0  0  0  0  0  0  0  0  0  0
   -2.7800    0.6720    0.4110 C   0  0  0  0  0  0  0  0  0  0  0  0
   -0.2590    2.2850   -0.2610 C   0  0  0  0  0  0  0  0  0  0  0  0
    2.7700    4.7620   -1.0050 H   0  0  0  0  0  0  0  0  0  0  0  0
    1.8800    6.0900   -0.2480 H   0  0  0  0  0  0  0  0  0  0  0  0
    2.6130    4.8630    0.7930 H   0  0  0  0  0  0  0  0  0  0  0  0
    3.0960    2.6960    0.1160 H   0  0  0  0  0  0  0  0  0  0  0  0
    4.4920    1.1040   -1.2160 H   0  0  0  0  0  0  0  0  0  0  0  0
    6.5170   -0.2580   -0.9780 H   0  0  0  0  0  0  0  0  0  0  0  0
    4.5290   -2.6710    2.0000 H   0  0  0  0  0  0  0  0  0  0  0  0
    2.5360   -1.2750    1.8120 H   0  0  0  0  0  0  0  0  0  0  0  0
    0.7940   -0.9210    0.0430 H   0  0  0  0  0  0  0  0  0  0  0  0
   -0.9720   -1.3430   -1.6460 H   0  0  0  0  0  0  0  0  0  0  0  0
   -3.1080   -2.5140   -1.7540 H   0  0  0  0  0  0  0  0  0  0  0  0
   -5.2820   -2.8540   -1.0350 H   0  0  0  0  0  0  0  0  0  0  0  0
   -6.7620   -0.1830   -0.7770 H   0  0  0  0  0  0  0  0  0  0  0  0
   -6.1680   -0.9010   -2.2850 H   0  0  0  0  0  0  0  0  0  0  0  0
   -7.4400   -1.7090   -1.3550 H   0  0  0  0  0  0  0  0  0  0  0  0
   -6.9380   -2.5580    0.8060 H   0  0  0  0  0  0  0  0  0  0  0  0
   -4.8490    0.3790    0.9250 H   0  0  0  0  0  0  0  0  0  0  0  0
   -2.7000    1.5390    1.0630 H   0  0  0  0  0  0  0  0  0  0  0  0
   -1.1570    2.8830   -0.4090 H   0  0  0  0  0  0  0  0  0  0  0  0
   -4.3460  -11.6060    3.5110 C   0  0  0  0  0  0  0  0  0  0  0  0
   -5.6730  -11.7160    4.0050 O   0  0  0  0  0  0  0  0  0  0  0  0
   -6.4270  -10.5750    4.0150 C   0  0  0  0  0  0  0  0  0  0  0  0
   -6.0270   -9.3180    3.5580 C   0  0  0  0  0  0  0  0  0  0  0  0
   -6.8920   -8.2140    3.6340 C   0  0  0  0  0  0  0  0  0  0  0  0
   -6.4840   -6.8800    3.1680 C   0  0  0  0  0  0  0  0  0  0  0  0
   -5.2460   -6.3310    3.5300 C   0  0  0  0  0  0  0  0  0  0  0  0
   -4.8600   -5.0720    3.0660 C   0  0  0  0  0  0  0  0  0  0  0  0
   -5.7020   -4.3280    2.2270 C   0  0  0  0  0  0  0  0  0  0  0  0
   -5.1410   -3.0790    1.6370 C   0  0  0  0  0  0  0  0  0  0  0  0
   -3.9620   -2.8180    1.8480 O   0  0  0  0  0  0  0  0  0  0  0  0
   -6.9480   -4.8540    1.8780 C   0  0  0  0  0  0  0  0  0  0  0  0
   -7.3290   -6.1150    2.3460 C   0  0  0  0  0  0  0  0  0  0  0  0
   -8.1730   -8.4140    4.1690 C   0  0  0  0  0  0  0  0  0  0  0  0
   -8.6050   -9.6680    4.6290 C   0  0  0  0  0  0  0  0  0  0  0  0
   -9.9560   -9.8390    5.1830 C   0  0  0  0  0  0  0  0  0  0  0  0
  -10.4860   -8.8910    6.0720 C   0  0  0  0  0  0  0  0  0  0  0  0
  -11.7850   -9.0120    6.5570 C   0  0  0  0  0  0  0  0  0  0  0  0
  -12.5910  -10.0920    6.1790 C   0  0  0  0  0  0  0  0  0  0  0  0
  -14.0130  -10.1590    6.6900 C   0  0  2  0  0  0  0  0  0  0  0  0
  -14.1660  -11.3060    7.6890 C   0  0  0  0  0  0  0  0  0  0  0  0
  -15.0070  -10.2450    5.6280 N   0  0  0  0  0  0  0  0  0  0  0  0
  -12.0640  -11.0590    5.3140 C   0  0  0  0  0  0  0  0  0  0  0  0
  -10.7630  -10.9290    4.8210 C   0  0  0  0  0  0  0  0  0  0  0  0
   -7.7080  -10.7380    4.5450 C   0  0  0  0  0  0  0  0  0  0  0  0
   -3.7640  -10.8900    4.1000 H   0  0  0  0  0  0  0  0  0  0  0  0
   -3.8700  -12.5860    3.6140 H   0  0  0  0  0  0  0  0  0  0  0  0
   -4.3420  -11.3420    2.4480 H   0  0  0  0  0  0  0  0  0  0  0  0
   -5.0420   -9.1760    3.1230 H   0  0  0  0  0  0  0  0  0  0  0  0
   -4.5630   -6.8800    4.1740 H   0  0  0  0  0  0  0  0  0  0  0  0
   -3.8780   -4.6870    3.3370 H   0  0  0  0  0  0  0  0  0  0  0  0
   -7.6350   -4.3420    1.2150 H   0  0  0  0  0  0  0  0  0  0  0  0
   -8.2930   -6.5150    2.0340 H   0  0  0  0  0  0  0  0  0  0  0  0
   -8.8570   -7.5670    4.2290 H   0  0  0  0  0  0  0  0  0  0  0  0
   -9.8940   -8.0350    6.3860 H   0  0  0  0  0  0  0  0  0  0  0  0
  -12.1770   -8.2330    7.2070 H   0  0  0  0  0  0  0  0  0  0  0  0
  -14.2450   -9.2270    7.2220 H   0  0  0  0  0  0  0  0  0  0  0  0
  -13.9430  -12.2790    7.2370 H   0  0  0  0  0  0  0  0  0  0  0  0
  -13.4890  -11.1680    8.5400 H   0  0  0  0  0  0  0  0  0  0  0  0
  -15.1890  -11.3490    8.0770 H   0  0  0  0  0  0  0  0  0  0  0  0
  -15.7910  -10.8500    5.8030 H   0  0  0  0  0  0  0  0  0  0  0  0
  -12.6730  -11.8990    4.9910 H   0  0  0  0  0  0  0  0  0  0  0  0
  -10.3950  -11.6750    4.1190 H   0  0  0  0  0  0  0  0  0  0  0  0
   -7.9990  -11.7210    4.9110 H   0  0  0  0  0  0  0  0  0  0  0  0
  -21.2670   -3.7910    1.7110 C   0  0  0  0  0  0  0  0  0  0  0  0
  -22.2340   -4.8090    1.4950 O   0  0  0  0  0  0  0  0  0  0  0  0
  -21.8490   -6.0960    1.7550 C   0  0  0  0  0  0  0  0  0  0  0  0
  -20.6140   -6.4970    2.2690 C   0  0  0  0  0  0  0  0  0  0  0  0
  -20.3300   -7.8560    2.5040 C   0  0  0  0  0  0  0  0  0  0  0  0
  -19.0160   -8.2830    3.0250 C   0  0  0  0  0  0  0  0  0  0  0  0
  -17.8250   -7.7540    2.5040 C   0  0  0  0  0  0  0  0  0  0  0  0
  -16.5840   -8.1090    3.0390 C   0  0  0  0  0  0  0  0  0  0  0  0
  -16.4980   -9.0090    4.1070 C   0  0  0  0  0  0  0  0  0  0  0  0
  -15.1630   -9.1910    4.7450 C   0  0  0  0  0  0  0  0  0  0  0  0
  -14.2880   -8.3630    4.5130 O   0  0  0  0  0  0  0  0  0  0  0  0
  -17.6710   -9.5810    4.6070 C   0  0  0  0  0  0  0  0  0  0  0  0
  -18.9130   -9.2170    4.0700 C   0  0  0  0  0  0  0  0  0  0  0  0
  -21.3360   -8.7950    2.2300 C   0  0  0  0  0  0  0  0  0  0  0  0
  -22.5900   -8.4180    1.7110 C   0  0  0  0  0  0  0  0  0  0  0  0
  -23.6200   -9.4290    1.4200 C   0  0  0  0  0  0  0  0  0  0  0  0
  -23.2860  -10.6350    0.7880 C   0  0  0  0  0  0  0  0  0  0  0  0
  -24.2510  -11.6100    0.5380 C   0  0  0  0  0  0  0  0  0  0  0  0
  -25.5850  -11.4100    0.9150 C   0  0  0  0  0  0  0  0  0  0  0  0
  -26.5910  -12.5200    0.6840 C   0  0  2  0  0  0  0  0  0  0  0  0
  -27.6080  -12.1110   -0.3830 C   0  0  0  0  0  0  0  0  0  0  0  0
  -27.2590  -12.9430    1.9090 N   0  0  0  0  0  0  0  0  0  0  0  0
  -25.9330  -10.2040    1.5350 C   0  0  0  0  0  0  0  0  0  0  0  0
  -24.9630   -9.2300    1.7830 C   0  0  0  0  0  0  0  0  0  0  0  0
  -22.8170   -7.0570    1.4740 C   0  0  0  0  0  0  0  0  0  0  0  0
  -20.4000   -3.9310    1.0570 H   0  0  0  0  0  0  0  0  0  0  0  0
  -21.7280   -2.8320    1.4550 H   0  0  0  0  0  0  0  0  0  0  0  0
  -20.9680   -3.7450    2.7640 H   0  0  0  0  0  0  0  0  0  0  0  0
  -19.8560   -5.7620    2.5150 H   0  0  0  0  0  0  0  0  0  0  0  0
  -17.8500   -7.0460    1.6790 H   0  0  0  0  0  0  0  0  0  0  0  0
  -15.6820   -7.6520    2.6350 H   0  0  0  0  0  0  0  0  0  0  0  0
  -17.6700  -10.2700    5.4440 H   0  0  0  0  0  0  0  0  0  0  0  0
  -19.8130   -9.6480    4.5080 H   0  0  0  0  0  0  0  0  0  0  0  0
  -21.1410   -9.8510    2.4160 H   0  0  0  0  0  0  0  0  0  0  0  0
  -22.2590  -10.8390    0.4920 H   0  0  0  0  0  0  0  0  0  0  0  0
  -23.9440  -12.5470    0.0790 H   0  0  0  0  0  0  0  0  0  0  0  0
  -26.0640  -13.4100    0.3150 H   0  0  0  0  0  0  0  0  0  0  0  0
  -28.2170  -11.2580   -0.0620 H   0  0  0  0  0  0  0  0  0  0  0  0
  -27.1080  -11.8340   -1.3180 H   0  0  0  0  0  0  0  0  0  0  0  0
  -28.2930  -12.9380   -0.6000 H   0  0  0  0  0  0  0  0  0  0  0  0
  -28.2520  -13.0910    1.8510 H   0  0  0  0  0  0  0  0  0  0  0  0
  -26.9570  -10.0290    1.8610 H   0  0  0  0  0  0  0  0  0  0  0  0
  -25.2630   -8.3170    2.2960 H   0  0  0  0  0  0  0  0  0  0  0  0
  -23.7680   -6.7290    1.0520 H   0  0  0  0  0  0  0  0  0  0  0  0
  -27.1130  -20.1220    8.6330 C   0  0  0  0  0  0  0  0  0  0  0  0
  -28.4470  -19.8190    9.0250 O   0  0  0  0  0  0  0  0  0  0  0  0
  -29.0310  -18.7240    8.4480 C   0  0  0  0  0  0  0  0  0  0  0  0
  -28.4510  -17.9020    7.4810 C   0  0  0  0  0  0  0  0  0  0  0  0
  -29.1430  -16.7930    6.9610 C   0  0  0  0  0  0  0  0  0  0  0  0
  -28.5210  -15.9060    5.9600 C   0  0  0  0  0  0  0  0  0  0  0  0
  -27.1990  -15.4610    6.1110 C   0  0  0  0  0  0  0  0  0  0  0  0
  -26.5920  -14.6590    5.1400 C   0  0  0  0  0  0  0  0  0  0  0  0
  -27.2960  -14.2610    3.9960 C   0  0  0  0  0  0  0  0  0  0  0  0
  -26.5420  -13.5120    2.9480 C   0  0  0  0  0  0  0  0  0  0  0  0
  -25.3170  -13.4720    3.0230 O   0  0  0  0  0  0  0  0  0  0  0  0
  -28.6280  -14.6590    3.8540 C   0  0  0  0  0  0  0  0  0  0  0  0
  -29.2260  -15.4760    4.8220 C   0  0  0  0  0  0  0  0  0  0  0  0
  -30.4470  -16.5490    7.4290 C   0  0  0  0  0  0  0  0  0  0  0  0
  -31.0600  -17.3570    8.4010 C   0  0  0  0  0  0  0  0  0  0  0  0
  -32.4300  -17.0710    8.8700 C   0  0  0  0  0  0  0  0  0  0  0  0
  -32.8440  -15.7600    9.1650 C   0  0  0  0  0  0  0  0  0  0  0  0
  -34.1540  -15.4840    9.5710 C   0  0  0  0  0  0  0  0  0  0  0  0
  -35.0950  -16.5110    9.7010 C   0  0  0  0  0  0  0  0  0  0  0  0
  -36.5190  -16.1830   10.1220 C   0  0  2  0  0  0  0  0  0  0  0  0
  -36.7790  -16.6640   11.5490 C   0  0  0  0  0  0  0  0  0  0  0  0
  -37.4790  -16.7590    9.1990 N   0  0  0  0  0  0  0  0  0  0  0  0
  -34.6880  -17.8240    9.4240 C   0  0  0  0  0  0  0  0  0  0  0  0
  -33.3780  -18.0960    9.0140 C   0  0  0  0  0  0  0  0  0  0  0  0
  -30.3240  -18.4430    8.9000 C   0  0  0  0  0  0  0  0  0  0  0  0
  -26.4310  -19.3050    8.8900 H   0  0  0  0  0  0  0  0  0  0  0  0
  -26.7930  -21.0090    9.1880 H   0  0  0  0  0  0  0  0  0  0  0  0
  -27.0590  -20.3610    7.5660 H   0  0  0  0  0  0  0  0  0  0  0  0
  -27.4540  -18.1110    7.1070 H   0  0  0  0  0  0  0  0  0  0  0  0
  -26.6220  -15.7380    6.9910 H   0  0  0  0  0  0  0  0  0  0  0  0
  -25.5540  -14.3590    5.2770 H   0  0  0  0  0  0  0  0  0  0  0  0
  -29.2240  -14.3880    2.9910 H   0  0  0  0  0  0  0  0  0  0  0  0
  -30.2540  -15.7990    4.6620 H   0  0  0  0  0  0  0  0  0  0  0  0
  -31.0000  -15.7020    7.0250 H   0  0  0  0  0  0  0  0  0  0  0  0
  -32.1450  -14.9300    9.0790 H   0  0  0  0  0  0  0  0  0  0  0  0
  -34.4360  -14.4520    9.7710 H   0  0  0  0  0  0  0  0  0  0  0  0
  -36.6620  -15.0950   10.0940 H   0  0  0  0  0  0  0  0  0  0  0  0
  -36.6420  -17.7470   11.6450 H   0  0  0  0  0  0  0  0  0  0  0  0
  -36.0950  -16.1800   12.2570 H   0  0  0  0  0  0  0  0  0  0  0  0
  -37.8040  -16.4350   11.8580 H   0  0  0  0  0  0  0  0  0  0  0  0
  -37.7770  -17.7150    9.3190 H   0  0  0  0  0  0  0  0  0  0  0  0
  -35.3910  -18.6500    9.5060 H   0  0  0  0  0  0  0  0  0  0  0  0
  -33.1090  -19.1250    8.7830 H   0  0  0  0  0  0  0  0  0  0  0  0
  -30.7530  -19.0850    9.6680 H   0  0  0  0  0  0  0  0  0  0  0  0
    7.3270   -4.7650    0.7840 C   0  0  0  0  0  0  0  0  0  0  0  0
    6.5240   -3.6350    1.1140 O   0  0  0  0  0  0  0  0  0  0  0  0
    6.8740   -5.2620   -0.0780 H   0  0  0  0  0  0  0  0  0  0  0  0
    7.3050   -5.4540    1.6320 H   0  0  0  0  0  0  0  0  0  0  0  0
    8.3680   -4.5060    0.5680 H   0  0  0  0  0  0  0  0  0  0  0  0
  -39.0670  -18.3080    5.2630 C   0  0  0  0  0  0  0  0  0  0  0  0
  -38.6430  -16.9360    5.8110 C   0  0  0  0  0  0  0  0  0  0  0  0
  -37.4600  -16.4350    4.9710 C   0  0  0  0  0  0  0  0  0  0  0  0
  -39.8360  -15.9790    5.7410 C   0  0  0  0  0  0  0  0  0  0  0  0
  -38.2980  -17.1860    7.1990 O   0  0  0  0  0  0  0  0  0  0  0  0
  -37.6670  -16.2510    7.9480 C   0  0  0  0  0  0  0  0  0  0  0  0
  -37.3040  -15.1500    7.5710 O   0  0  0  0  0  0  0  0  0  0  0  0
  -39.3770  -18.2500    4.2140 H   0  0  0  0  0  0  0  0  0  0  0  0
  -38.2410  -19.0260    5.3400 H   0  0  0  0  0  0  0  0  0  0  0  0
  -39.8950  -18.7250    5.8470 H   0  0  0  0  0  0  0  0  0  0  0  0
  -36.5580  -17.0230    5.1730 H   0  0  0  0  0  0  0  0  0  0  0  0
  -37.2170  -15.3890    5.1840 H   0  0  0  0  0  0  0  0  0  0  0  0
  -37.6800  -16.4930    3.8990 H   0  0  0  0  0  0  0  0  0  0  0  0
  -40.6680  -16.3510    6.3510 H   0  0  0  0  0  0  0  0  0  0  0  0
  -39.5800  -14.9900    6.1360 H   0  0  0  0  0  0  0  0  0  0  0  0
  -40.1930  -15.8530    4.7130 H   0  0  0  0  0  0  0  0  0  0  0  0
  1 28  1  0  0  0  0
  2  1  1  0  0  0  0
  2  3  1  0  0  0  0
  3  4  1  0  0  0  0
  4  5  2  0  0  0  0
  4 29  1  0  0  0  0
  5  6  1  0  0  0  0
  6 13  1  0  0  0  0
  7  8  1  0  0  0  0
  7  6  2  0  0  0  0
  8  9  2  0  0  0  0
  9 12  1  0  0  0  0
 10  9  1  0  0  0  0
 10178  1  0  0  0  0
 11 10  2  0  0  0  0
 12 32  1  0  0  0  0
 13 12  2  0  0  0  0
 13 33  1  0  0  0  0
 14 34  1  0  0  0  0
 14  5  1  0  0  0  0
 15 14  2  0  0  0  0
 16 15  1  0  0  0  0
 16 24  1  0  0  0  0
 17 16  2  0  0  0  0
 18 17  1  0  0  0  0
 18 19  2  0  0  0  0
 19 23  1  0  0  0  0
 20 37  1  6  0  0  0
 20 19  1  0  0  0  0
 20 22  1  0  0  0  0
 21 38  1  0  0  0  0
 21 20  1  0  0  0  0
 22 54  1  0  0  0  0
 23 24  2  0  0  0  0
 23 42  1  0  0  0  0
 24 43  1  0  0  0  0
 25 15  1  0  0  0  0
 25  3  2  0  0  0  0
 26  1  1  0  0  0  0
 27  1  1  0  0  0  0
 30  7  1  0  0  0  0
 31  8  1  0  0  0  0
 35 17  1  0  0  0  0
 36 18  1  0  0  0  0
 39 21  1  0  0  0  0
 40 21  1  0  0  0  0
 41 22  1  0  0  0  0
 44 25  1  0  0  0  0
 45 71  1  0  0  0  0
 45 46  1  0  0  0  0
 45 70  1  0  0  0  0
 46 47  1  0  0  0  0
 47 69  1  0  0  0  0
 48 49  1  0  0  0  0
 48 47  2  0  0  0  0
 49 58  2  0  0  0  0
 50 51  1  0  0  0  0
 50 49  1  0  0  0  0
 51 74  1  0  0  0  0
 52 75  1  0  0  0  0
 52 51  2  0  0  0  0
 53 52  1  0  0  0  0
 54 55  2  0  0  0  0
 54 53  1  0  0  0  0
 56 53  2  0  0  0  0
 56 57  1  0  0  0  0
 57 50  2  0  0  0  0
 58 78  1  0  0  0  0
 58 59  1  0  0  0  0
 59 60  1  0  0  0  0
 60 61  1  0  0  0  0
 61 79  1  0  0  0  0
 61 62  2  0  0  0  0
 62 80  1  0  0  0  0
 63 62  1  0  0  0  0
 63 64  1  0  0  0  0
 64 81  1  1  0  0  0
 64 65  1  0  0  0  0
 65 84  1  0  0  0  0
 65 83  1  0  0  0  0
 66 85  1  0  0  0  0
 66 64  1  0  0  0  0
 67 63  2  0  0  0  0
 68 60  2  0  0  0  0
 68 67  1  0  0  0  0
 69 59  2  0  0  0  0
 69 88  1  0  0  0  0
 72 45  1  0  0  0  0
 73 48  1  0  0  0  0
 76 56  1  0  0  0  0
 77 57  1  0  0  0  0
 82 65  1  0  0  0  0
 86 67  1  0  0  0  0
 87 68  1  0  0  0  0
 89116  1  0  0  0  0
 90 89  1  0  0  0  0
 90 91  1  0  0  0  0
 91 92  1  0  0  0  0
 92 93  2  0  0  0  0
 92117  1  0  0  0  0
 93 94  1  0  0  0  0
 94101  1  0  0  0  0
 95 94  2  0  0  0  0
 95 96  1  0  0  0  0
 96 97  2  0  0  0  0
 97100  1  0  0  0  0
 97 98  1  0  0  0  0
 98 66  1  0  0  0  0
 99 98  2  0  0  0  0
100120  1  0  0  0  0
101121  1  0  0  0  0
101100  2  0  0  0  0
102122  1  0  0  0  0
102 93  1  0  0  0  0
103102  2  0  0  0  0
104103  1  0  0  0  0
104112  1  0  0  0  0
105104  2  0  0  0  0
106105  1  0  0  0  0
106107  2  0  0  0  0
107111  1  0  0  0  0
108125  1  6  0  0  0
108107  1  0  0  0  0
108110  1  0  0  0  0
109126  1  0  0  0  0
109108  1  0  0  0  0
110142  1  0  0  0  0
111112  2  0  0  0  0
111130  1  0  0  0  0
112131  1  0  0  0  0
113103  1  0  0  0  0
113 91  2  0  0  0  0
114 89  1  0  0  0  0
115 89  1  0  0  0  0
118 95  1  0  0  0  0
119 96  1  0  0  0  0
123105  1  0  0  0  0
124106  1  0  0  0  0
127109  1  0  0  0  0
128109  1  0  0  0  0
129110  1  0  0  0  0
132113  1  0  0  0  0
133158  1  0  0  0  0
133134  1  0  0  0  0
133159  1  0  0  0  0
135157  1  0  0  0  0
135134  1  0  0  0  0
136135  2  0  0  0  0
137146  2  0  0  0  0
137136  1  0  0  0  0
138139  1  0  0  0  0
138137  1  0  0  0  0
139162  1  0  0  0  0
140163  1  0  0  0  0
140139  2  0  0  0  0
141140  1  0  0  0  0
142143  2  0  0  0  0
142141  1  0  0  0  0
144141  2  0  0  0  0
144145  1  0  0  0  0
145138  2  0  0  0  0
146147  1  0  0  0  0
147148  1  0  0  0  0
147157  2  0  0  0  0
148156  2  0  0  0  0
148149  1  0  0  0  0
149150  2  0  0  0  0
150151  1  0  0  0  0
150168  1  0  0  0  0
151152  1  0  0  0  0
152169  1  6  0  0  0
152153  1  0  0  0  0
153170  1  0  0  0  0
153172  1  0  0  0  0
153171  1  0  0  0  0
154173  1  0  0  0  0
154152  1  0  0  0  0
155174  1  0  0  0  0
155151  2  0  0  0  0
156155  1  0  0  0  0
157176  1  0  0  0  0
160133  1  0  0  0  0
161136  1  0  0  0  0
164144  1  0  0  0  0
165145  1  0  0  0  0
166146  1  0  0  0  0
167149  1  0  0  0  0
175156  1  0  0  0  0
177178  1  0  0  0  0
177180  1  0  0  0  0
179177  1  0  0  0  0
181177  1  0  0  0  0
182190  1  0  0  0  0
182183  1  0  0  0  0
182191  1  0  0  0  0
183186  1  0  0  0  0
184192  1  0  0  0  0
184193  1  0  0  0  0
184183  1  0  0  0  0
185183  1  0  0  0  0
185196  1  0  0  0  0
185195  1  0  0  0  0
186187  1  0  0  0  0
187154  1  0  0  0  0
188187  2  0  0  0  0
189182  1  0  0  0  0
194184  1  0  0  0  0
197185  1  0  0  0  0
M  END
