mop_tetramer.pdb
  -OEChem-09242412053D

197208  0     1  0  0  0  0  0999 V2000
   -3.4310   -4.7300    0.0400 C   0  0  0  0  0  0  0  0  0  0  0  0
   -3.8610   -5.2830   -0.9590 O   0  0  0  0  0  0  0  0  0  0  0  0
   -2.9790   -3.3210    0.0650 C   0  0  0  0  0  0  0  0  0  0  0  0
   -2.0030   -2.8580    0.9510 C   0  0  0  0  0  0  0  0  0  0  0  0
   -1.6660   -1.4980    0.9630 C   0  0  0  0  0  0  0  0  0  0  0  0
   -2.2990   -0.5880    0.0950 C   0  0  0  0  0  0  0  0  0  0  0  0
   -1.9740    0.8520    0.0950 C   0  0  0  0  0  0  0  0  0  0  0  0
   -0.6960    1.3490   -0.2460 C   0  0  0  0  0  0  0  0  0  0  0  0
   -0.4480    2.7350   -0.1700 C   0  0  0  0  0  0  0  0  0  0  0  0
   -1.4400    3.6370    0.1950 C   0  0  0  0  0  0  0  0  0  0  0  0
   -1.0340    4.9410    0.2350 O   0  0  0  0  0  0  0  0  0  0  0  0
   -2.0290    5.9110    0.5220 C   0  0  0  0  0  0  0  0  0  0  0  0
   -2.7110    3.1480    0.4830 C   0  0  0  0  0  0  0  0  0  0  0  0
   -2.9700    1.7800    0.4420 C   0  0  0  0  0  0  0  0  0  0  0  0
    0.4100    0.4720   -0.6460 C   0  0  0  0  0  0  0  0  0  0  0  0
    0.3260   -0.3800   -1.7570 C   0  0  0  0  0  0  0  0  0  0  0  0
    1.3700   -1.2480   -2.0760 C   0  0  0  0  0  0  0  0  0  0  0  0
    2.5170   -1.2480   -1.2980 C   0  0  0  0  0  0  0  0  0  0  0  0
    2.6250   -0.3810   -0.2000 C   0  0  0  0  0  0  0  0  0  0  0  0
    1.5690    0.4620    0.1250 C   0  0  0  0  0  0  0  0  0  0  0  0
    3.8330   -0.4000    0.7020 C   0  0  1  0  0  0  0  0  0  0  0  0
    3.8690   -1.7200    1.3120 N   0  0  0  0  0  0  0  0  0  0  0  0
    5.0440   -0.0500   -0.1680 C   0  0  0  0  0  0  0  0  0  0  0  0
   -3.2570   -1.0820   -0.8040 C   0  0  0  0  0  0  0  0  0  0  0  0
   -3.5870   -2.4370   -0.8270 C   0  0  0  0  0  0  0  0  0  0  0  0
   -1.4990   -3.5400    1.6290 H   0  0  0  0  0  0  0  0  0  0  0  0
   -0.8960   -1.1520    1.6540 H   0  0  0  0  0  0  0  0  0  0  0  0
    0.5460    3.1180   -0.4000 H   0  0  0  0  0  0  0  0  0  0  0  0
   -1.5450    6.8920    0.5290 H   0  0  0  0  0  0  0  0  0  0  0  0
   -2.4690    5.7500    1.5120 H   0  0  0  0  0  0  0  0  0  0  0  0
   -2.7980    5.9210   -0.2580 H   0  0  0  0  0  0  0  0  0  0  0  0
   -3.5240    3.8170    0.7620 H   0  0  0  0  0  0  0  0  0  0  0  0
   -3.9680    1.4270    0.6970 H   0  0  0  0  0  0  0  0  0  0  0  0
   -0.5690   -0.3910   -2.3720 H   0  0  0  0  0  0  0  0  0  0  0  0
    1.2790   -1.9300   -2.9160 H   0  0  0  0  0  0  0  0  0  0  0  0
    3.3190   -1.9410   -1.5430 H   0  0  0  0  0  0  0  0  0  0  0  0
    1.6350    1.0900    1.0160 H   0  0  0  0  0  0  0  0  0  0  0  0
    3.7420    0.3490    1.4980 H   0  0  0  0  0  0  0  0  0  0  0  0
    4.1590   -2.4380    0.6770 H   0  0  0  0  0  0  0  0  0  0  0  0
    5.3480   -0.8790   -0.8140 H   0  0  0  0  0  0  0  0  0  0  0  0
    5.9050    0.2340    0.4260 H   0  0  0  0  0  0  0  0  0  0  0  0
    4.8310    0.8150   -0.8090 H   0  0  0  0  0  0  0  0  0  0  0  0
   -3.7480   -0.4100   -1.5020 H   0  0  0  0  0  0  0  0  0  0  0  0
   -4.3330   -2.7930   -1.5310 H   0  0  0  0  0  0  0  0  0  0  0  0
    2.9200   -2.0590    2.2740 C   0  0  0  0  0  0  0  0  0  0  0  0
    2.4650   -1.2410    3.0690 O   0  0  0  0  0  0  0  0  0  0  0  0
    2.3770   -3.4630    2.2370 C   0  0  0  0  0  0  0  0  0  0  0  0
    2.8700   -4.4420    1.3700 C   0  0  0  0  0  0  0  0  0  0  0  0
    2.2340   -5.6820    1.2460 C   0  0  0  0  0  0  0  0  0  0  0  0
    1.0980   -5.9980    2.0020 C   0  0  0  0  0  0  0  0  0  0  0  0
    0.4360   -7.3100    1.8390 C   0  0  0  0  0  0  0  0  0  0  0  0
    1.0290   -8.5230    2.2520 C   0  0  0  0  0  0  0  0  0  0  0  0
    0.3830   -9.7510    1.9860 C   0  0  0  0  0  0  0  0  0  0  0  0
   -0.8260   -9.8060    1.3070 C   0  0  0  0  0  0  0  0  0  0  0  0
   -1.3120  -11.0630    1.0890 O   0  0  0  0  0  0  0  0  0  0  0  0
   -2.6880  -11.1510    0.7410 C   0  0  0  0  0  0  0  0  0  0  0  0
   -1.3900   -8.6200    0.8640 C   0  0  0  0  0  0  0  0  0  0  0  0
   -0.7710   -7.3900    1.1340 C   0  0  0  0  0  0  0  0  0  0  0  0
    2.3870   -8.5660    2.7840 C   0  0  0  0  0  0  0  0  0  0  0  0
    2.7730   -7.9230    3.9670 C   0  0  0  0  0  0  0  0  0  0  0  0
    4.1120   -7.8850    4.3470 C   0  0  0  0  0  0  0  0  0  0  0  0
    5.0660   -8.5120    3.5580 C   0  0  0  0  0  0  0  0  0  0  0  0
    4.6840   -9.1820    2.3840 C   0  0  0  0  0  0  0  0  0  0  0  0
    3.3530   -9.1960    2.0030 C   0  0  0  0  0  0  0  0  0  0  0  0
    5.6820   -9.8390    1.4700 C   0  0  1  0  0  0  0  0  0  0  0  0
    6.5680   -8.7940    1.0010 N   0  0  0  0  0  0  0  0  0  0  0  0
    6.3430  -10.9510    2.2890 C   0  0  0  0  0  0  0  0  0  0  0  0
    0.6330   -5.0360    2.9110 C   0  0  0  0  0  0  0  0  0  0  0  0
    1.2630   -3.7830    3.0270 C   0  0  0  0  0  0  0  0  0  0  0  0
    3.7440   -4.2850    0.7570 H   0  0  0  0  0  0  0  0  0  0  0  0
    2.6440   -6.4120    0.5470 H   0  0  0  0  0  0  0  0  0  0  0  0
    0.8630  -10.6860    2.2740 H   0  0  0  0  0  0  0  0  0  0  0  0
   -2.9560  -12.2110    0.7070 H   0  0  0  0  0  0  0  0  0  0  0  0
   -2.8740  -10.7300   -0.2520 H   0  0  0  0  0  0  0  0  0  0  0  0
   -3.3140  -10.6690    1.4990 H   0  0  0  0  0  0  0  0  0  0  0  0
   -2.2970   -8.6190    0.2710 H   0  0  0  0  0  0  0  0  0  0  0  0
   -1.2120   -6.4800    0.7400 H   0  0  0  0  0  0  0  0  0  0  0  0
    2.0340   -7.4090    4.5750 H   0  0  0  0  0  0  0  0  0  0  0  0
    4.4130   -7.3480    5.2420 H   0  0  0  0  0  0  0  0  0  0  0  0
    6.1110   -8.4610    3.8500 H   0  0  0  0  0  0  0  0  0  0  0  0
    3.0720   -9.6560    1.0550 H   0  0  0  0  0  0  0  0  0  0  0  0
    5.1920  -10.2860    0.5950 H   0  0  0  0  0  0  0  0  0  0  0  0
    7.2570   -8.5290    1.6840 H   0  0  0  0  0  0  0  0  0  0  0  0
    7.0290  -10.5590    3.0450 H   0  0  0  0  0  0  0  0  0  0  0  0
    6.8990  -11.6450    1.6700 H   0  0  0  0  0  0  0  0  0  0  0  0
    5.5880  -11.5580    2.8060 H   0  0  0  0  0  0  0  0  0  0  0  0
   -0.2340   -5.2530    3.5340 H   0  0  0  0  0  0  0  0  0  0  0  0
    0.8580   -3.0480    3.7210 H   0  0  0  0  0  0  0  0  0  0  0  0
    6.1080   -7.8190    0.1120 C   0  0  0  0  0  0  0  0  0  0  0  0
    5.2630   -8.0420   -0.7490 O   0  0  0  0  0  0  0  0  0  0  0  0
    6.6200   -6.4190    0.3320 C   0  0  0  0  0  0  0  0  0  0  0  0
    7.5220   -6.1050    1.3510 C   0  0  0  0  0  0  0  0  0  0  0  0
    7.8360   -4.7870    1.6650 C   0  0  0  0  0  0  0  0  0  0  0  0
    7.2800   -3.7240    0.9550 C   0  0  0  0  0  0  0  0  0  0  0  0
    7.5960   -2.3440    1.3660 C   0  0  0  0  0  0  0  0  0  0  0  0
    8.8030   -1.6950    1.0270 C   0  0  0  0  0  0  0  0  0  0  0  0
    8.9920   -0.3470    1.4040 C   0  0  0  0  0  0  0  0  0  0  0  0
    8.0490    0.3410    2.1640 C   0  0  0  0  0  0  0  0  0  0  0  0
    8.3410    1.6480    2.4310 O   0  0  0  0  0  0  0  0  0  0  0  0
    7.2160    2.4990    2.6300 C   0  0  0  0  0  0  0  0  0  0  0  0
    6.9440   -0.3500    2.6410 C   0  0  0  0  0  0  0  0  0  0  0  0
    6.7320   -1.6780    2.2490 C   0  0  0  0  0  0  0  0  0  0  0  0
    9.9600   -2.4500    0.5290 C   0  0  0  0  0  0  0  0  0  0  0  0
   10.0020   -3.0840   -0.7150 C   0  0  0  0  0  0  0  0  0  0  0  0
   11.0830   -3.9040   -1.0480 C   0  0  0  0  0  0  0  0  0  0  0  0
   12.1360   -4.0870   -0.1460 C   0  0  0  0  0  0  0  0  0  0  0  0
   12.1180   -3.4560    1.1060 C   0  0  0  0  0  0  0  0  0  0  0  0
   11.0280   -2.6440    1.4210 C   0  0  0  0  0  0  0  0  0  0  0  0
   13.1620   -3.7050    2.1840 C   0  0  1  0  0  0  0  0  0  0  0  0
   13.1200   -5.1060    2.5680 N   0  0  0  0  0  0  0  0  0  0  0  0
   14.5490   -3.2910    1.6930 C   0  0  0  0  0  0  0  0  0  0  0  0
    6.4310   -4.0280   -0.1220 C   0  0  0  0  0  0  0  0  0  0  0  0
    6.0980   -5.3610   -0.4290 C   0  0  0  0  0  0  0  0  0  0  0  0
    7.9980   -6.8580    1.9620 H   0  0  0  0  0  0  0  0  0  0  0  0
    8.5260   -4.5920    2.4880 H   0  0  0  0  0  0  0  0  0  0  0  0
    9.9170    0.1610    1.1350 H   0  0  0  0  0  0  0  0  0  0  0  0
    7.5860    3.5260    2.7070 H   0  0  0  0  0  0  0  0  0  0  0  0
    6.6980    2.2660    3.5650 H   0  0  0  0  0  0  0  0  0  0  0  0
    6.5290    2.4550    1.7780 H   0  0  0  0  0  0  0  0  0  0  0  0
    6.2100    0.1150    3.2920 H   0  0  0  0  0  0  0  0  0  0  0  0
    5.8690   -2.2030    2.6530 H   0  0  0  0  0  0  0  0  0  0  0  0
    9.1750   -2.9810   -1.4120 H   0  0  0  0  0  0  0  0  0  0  0  0
   11.0890   -4.4260   -2.0020 H   0  0  0  0  0  0  0  0  0  0  0  0
   12.9470   -4.7550   -0.4180 H   0  0  0  0  0  0  0  0  0  0  0  0
   10.9680   -2.2030    2.4180 H   0  0  0  0  0  0  0  0  0  0  0  0
   12.9280   -3.1120    3.0770 H   0  0  0  0  0  0  0  0  0  0  0  0
   13.6520   -5.7180    1.9760 H   0  0  0  0  0  0  0  0  0  0  0  0
   14.8770   -3.8900    0.8350 H   0  0  0  0  0  0  0  0  0  0  0  0
   15.2960   -3.4160    2.4830 H   0  0  0  0  0  0  0  0  0  0  0  0
   14.5530   -2.2390    1.3830 H   0  0  0  0  0  0  0  0  0  0  0  0
    6.0060   -3.2290   -0.7270 H   0  0  0  0  0  0  0  0  0  0  0  0
    5.4020   -5.5740   -1.2410 H   0  0  0  0  0  0  0  0  0  0  0  0
   11.9720   -5.6000    3.1850 C   0  0  0  0  0  0  0  0  0  0  0  0
   11.3270   -4.9610    4.0080 O   0  0  0  0  0  0  0  0  0  0  0  0
   11.4750   -6.9360    2.7180 C   0  0  0  0  0  0  0  0  0  0  0  0
   12.0170   -7.5570    1.5900 C   0  0  0  0  0  0  0  0  0  0  0  0
   11.4930   -8.7460    1.0840 C   0  0  0  0  0  0  0  0  0  0  0  0
   10.3880   -9.3480    1.6740 C   0  0  0  0  0  0  0  0  0  0  0  0
    9.8480  -10.5820    1.0810 C   0  0  0  0  0  0  0  0  0  0  0  0
   10.3700  -11.8640    1.3600 C   0  0  0  0  0  0  0  0  0  0  0  0
    9.7270  -12.9990    0.8160 C   0  0  0  0  0  0  0  0  0  0  0  0
    8.6330  -12.8840   -0.0410 C   0  0  0  0  0  0  0  0  0  0  0  0
    8.0720  -14.0590   -0.4560 O   0  0  0  0  0  0  0  0  0  0  0  0
    6.6820  -13.9980   -0.7680 C   0  0  0  0  0  0  0  0  0  0  0  0
    8.2390  -11.6190   -0.4550 C   0  0  0  0  0  0  0  0  0  0  0  0
    8.8550  -10.4870    0.0930 C   0  0  0  0  0  0  0  0  0  0  0  0
   11.6930  -12.0280    1.9810 C   0  0  0  0  0  0  0  0  0  0  0  0
   11.9920  -11.6640    3.2960 C   0  0  0  0  0  0  0  0  0  0  0  0
   13.3110  -11.7050    3.7570 C   0  0  0  0  0  0  0  0  0  0  0  0
   14.3480  -12.1170    2.9130 C   0  0  0  0  0  0  0  0  0  0  0  0
   14.0740  -12.5030    1.5960 C   0  0  0  0  0  0  0  0  0  0  0  0
   12.7480  -12.4560    1.1550 C   0  0  0  0  0  0  0  0  0  0  0  0
   15.1530  -12.8780    0.5960 C   0  0  1  0  0  0  0  0  0  0  0  0
   15.9730  -11.7290    0.2560 N   0  0  0  0  0  0  0  0  0  0  0  0
   15.9810  -14.0670    1.0750 C   0  0  0  0  0  0  0  0  0  0  0  0
    9.8330   -8.7320    2.8120 C   0  0  0  0  0  0  0  0  0  0  0  0
   10.3710   -7.5370    3.3260 C   0  0  0  0  0  0  0  0  0  0  0  0
   12.8300   -7.1160    1.0470 H   0  0  0  0  0  0  0  0  0  0  0  0
   11.9520   -9.2070    0.2100 H   0  0  0  0  0  0  0  0  0  0  0  0
   10.1140  -13.9920    1.0380 H   0  0  0  0  0  0  0  0  0  0  0  0
    6.3400  -15.0190   -0.9630 H   0  0  0  0  0  0  0  0  0  0  0  0
    6.4990  -13.4130   -1.6730 H   0  0  0  0  0  0  0  0  0  0  0  0
    6.1010  -13.6080    0.0760 H   0  0  0  0  0  0  0  0  0  0  0  0
    7.4380  -11.4700   -1.1720 H   0  0  0  0  0  0  0  0  0  0  0  0
    8.5400   -9.5090   -0.2620 H   0  0  0  0  0  0  0  0  0  0  0  0
   11.2080  -11.3020    3.9560 H   0  0  0  0  0  0  0  0  0  0  0  0
   13.5360  -11.3860    4.7710 H   0  0  0  0  0  0  0  0  0  0  0  0
   15.3690  -12.1090    3.2850 H   0  0  0  0  0  0  0  0  0  0  0  0
   12.5290  -12.6930    0.1100 H   0  0  0  0  0  0  0  0  0  0  0  0
   14.6700  -13.1960   -0.3380 H   0  0  0  0  0  0  0  0  0  0  0  0
   16.7940  -11.5050    0.7970 H   0  0  0  0  0  0  0  0  0  0  0  0
   16.5340  -13.8450    1.9940 H   0  0  0  0  0  0  0  0  0  0  0  0
   16.7100  -14.3640    0.3140 H   0  0  0  0  0  0  0  0  0  0  0  0
   15.3340  -14.9300    1.2740 H   0  0  0  0  0  0  0  0  0  0  0  0
    8.9690   -9.1710    3.3040 H   0  0  0  0  0  0  0  0  0  0  0  0
    9.8960   -7.0520    4.1830 H   0  0  0  0  0  0  0  0  0  0  0  0
   -4.0300   -6.5180    1.4360 C   0  0  0  0  0  0  0  0  0  0  0  0
   -3.4100   -5.2370    1.2970 O   0  0  0  0  0  0  0  0  0  0  0  0
   -5.0830   -6.3830    1.6920 H   0  0  0  0  0  0  0  0  0  0  0  0
   -3.5370   -7.0490    2.2560 H   0  0  0  0  0  0  0  0  0  0  0  0
   -3.9480   -7.1270    0.5310 H   0  0  0  0  0  0  0  0  0  0  0  0
   17.1780   -7.5290   -1.2000 C   0  0  0  0  0  0  0  0  0  0  0  0
   15.9340   -8.4250   -1.1710 C   0  0  0  0  0  0  0  0  0  0  0  0
   14.8980   -7.7580   -0.2750 C   0  0  0  0  0  0  0  0  0  0  0  0
   15.4010   -8.5710   -2.6030 C   0  0  0  0  0  0  0  0  0  0  0  0
   16.3450   -9.6850   -0.5710 O   0  0  0  0  0  0  0  0  0  0  0  0
   15.4640  -10.7160   -0.5100 C   0  0  0  0  0  0  0  0  0  0  0  0
   14.3590  -10.7340   -1.0310 O   0  0  0  0  0  0  0  0  0  0  0  0
   16.9430   -6.5330   -1.5950 H   0  0  0  0  0  0  0  0  0  0  0  0
   17.5980   -7.4070   -0.1960 H   0  0  0  0  0  0  0  0  0  0  0  0
   17.9610   -7.9720   -1.8230 H   0  0  0  0  0  0  0  0  0  0  0  0
   15.2440   -7.7020    0.7640 H   0  0  0  0  0  0  0  0  0  0  0  0
   13.9840   -8.3500   -0.2750 H   0  0  0  0  0  0  0  0  0  0  0  0
   14.6450   -6.7480   -0.6150 H   0  0  0  0  0  0  0  0  0  0  0  0
   16.0940   -9.1490   -3.2200 H   0  0  0  0  0  0  0  0  0  0  0  0
   14.4350   -9.0830   -2.6400 H   0  0  0  0  0  0  0  0  0  0  0  0
   15.2430   -7.5910   -3.0670 H   0  0  0  0  0  0  0  0  0  0  0  0
  1  3  1  0  0  0  0
  1178  1  0  0  0  0
  1  2  2  0  0  0  0
  3  4  2  0  0  0  0
  4  5  1  0  0  0  0
  4 26  1  0  0  0  0
  5 27  1  0  0  0  0
  6  7  1  0  0  0  0
  5  6  2  0  0  0  0
  7 14  2  0  0  0  0
  8  9  2  0  0  0  0
  7  8  1  0  0  0  0
  9 10  1  0  0  0  0
 10 11  1  0  0  0  0
 10 13  2  0  0  0  0
 11 12  1  0  0  0  0
 12 29  1  0  0  0  0
 12 30  1  0  0  0  0
 13 32  1  0  0  0  0
 13 14  1  0  0  0  0
 14 33  1  0  0  0  0
  8 15  1  0  0  0  0
 15 20  1  0  0  0  0
 15 16  2  0  0  0  0
 16 17  1  0  0  0  0
 17 18  2  0  0  0  0
 18 19  1  0  0  0  0
 19 20  2  0  0  0  0
 19 21  1  0  0  0  0
 20 37  1  0  0  0  0
 21 22  1  0  0  0  0
 21 38  1  0  0  0  0
 22 45  1  0  0  0  0
 23 41  1  0  0  0  0
 21 23  1  0  0  0  0
  6 24  1  0  0  0  0
 24 25  2  0  0  0  0
  3 25  1  0  0  0  0
  9 28  1  0  0  0  0
 12 31  1  0  0  0  0
 16 34  1  0  0  0  0
 17 35  1  0  0  0  0
 18 36  1  0  0  0  0
 22 39  1  0  0  0  0
 23 40  1  0  0  0  0
 23 42  1  0  0  0  0
 24 43  1  0  0  0  0
 25 44  1  0  0  0  0
 45 46  2  0  0  0  0
 45 47  1  0  0  0  0
 47 69  1  0  0  0  0
 47 48  2  0  0  0  0
 48 49  1  0  0  0  0
 49 50  2  0  0  0  0
 50 68  1  0  0  0  0
 50 51  1  0  0  0  0
 51 52  1  0  0  0  0
 52 59  1  0  0  0  0
 52 53  2  0  0  0  0
 53 72  1  0  0  0  0
 53 54  1  0  0  0  0
 54 55  1  0  0  0  0
 55 56  1  0  0  0  0
 56 75  1  0  0  0  0
 57 58  1  0  0  0  0
 54 57  2  0  0  0  0
 51 58  2  0  0  0  0
 59 60  2  0  0  0  0
 60 61  1  0  0  0  0
 60 78  1  0  0  0  0
 61 79  1  0  0  0  0
 62 80  1  0  0  0  0
 61 62  2  0  0  0  0
 62 63  1  0  0  0  0
 63 64  2  0  0  0  0
 59 64  1  0  0  0  0
 65 82  1  0  0  0  0
 65 67  1  0  0  0  0
 63 65  1  0  0  0  0
 65 66  1  0  0  0  0
 66 83  1  0  0  0  0
 67 86  1  0  0  0  0
 67 84  1  0  0  0  0
 68 69  2  0  0  0  0
 68 87  1  0  0  0  0
 69 88  1  0  0  0  0
 48 70  1  0  0  0  0
 49 71  1  0  0  0  0
 56 73  1  0  0  0  0
 56 74  1  0  0  0  0
 57 76  1  0  0  0  0
 58 77  1  0  0  0  0
 64 81  1  0  0  0  0
 67 85  1  0  0  0  0
 89 91  1  0  0  0  0
 66 89  1  0  0  0  0
 89 90  2  0  0  0  0
 91 92  2  0  0  0  0
 92 93  1  0  0  0  0
 92114  1  0  0  0  0
 93115  1  0  0  0  0
 94 95  1  0  0  0  0
 93 94  2  0  0  0  0
 95102  2  0  0  0  0
 95 96  1  0  0  0  0
 96 97  2  0  0  0  0
 97 98  1  0  0  0  0
 98 99  1  0  0  0  0
 98101  2  0  0  0  0
 99100  1  0  0  0  0
100117  1  0  0  0  0
100118  1  0  0  0  0
101120  1  0  0  0  0
101102  1  0  0  0  0
102121  1  0  0  0  0
 96103  1  0  0  0  0
103108  1  0  0  0  0
103104  2  0  0  0  0
104105  1  0  0  0  0
105106  2  0  0  0  0
106107  1  0  0  0  0
107108  2  0  0  0  0
107109  1  0  0  0  0
108125  1  0  0  0  0
109110  1  0  0  0  0
109126  1  0  0  0  0
110133  1  0  0  0  0
109111  1  0  0  0  0
111129  1  0  0  0  0
 94112  1  0  0  0  0
112113  2  0  0  0  0
 91113  1  0  0  0  0
 97116  1  0  0  0  0
100119  1  0  0  0  0
104122  1  0  0  0  0
105123  1  0  0  0  0
106124  1  0  0  0  0
110127  1  0  0  0  0
111128  1  0  0  0  0
111130  1  0  0  0  0
112131  1  0  0  0  0
113132  1  0  0  0  0
133134  2  0  0  0  0
133135  1  0  0  0  0
135157  1  0  0  0  0
135136  2  0  0  0  0
136137  1  0  0  0  0
137138  2  0  0  0  0
138156  1  0  0  0  0
139140  1  0  0  0  0
138139  1  0  0  0  0
140147  1  0  0  0  0
141160  1  0  0  0  0
140141  2  0  0  0  0
141142  1  0  0  0  0
142143  1  0  0  0  0
143144  1  0  0  0  0
144163  1  0  0  0  0
142145  2  0  0  0  0
145146  1  0  0  0  0
139146  2  0  0  0  0
147148  2  0  0  0  0
148149  1  0  0  0  0
148166  1  0  0  0  0
149167  1  0  0  0  0
150168  1  0  0  0  0
149150  2  0  0  0  0
150151  1  0  0  0  0
151152  2  0  0  0  0
147152  1  0  0  0  0
153170  1  0  0  0  0
153155  1  0  0  0  0
151153  1  0  0  0  0
153154  1  0  0  0  0
154171  1  0  0  0  0
155174  1  0  0  0  0
155172  1  0  0  0  0
156175  1  0  0  0  0
156157  2  0  0  0  0
157176  1  0  0  0  0
136158  1  0  0  0  0
137159  1  0  0  0  0
144161  1  0  0  0  0
144162  1  0  0  0  0
145164  1  0  0  0  0
146165  1  0  0  0  0
152169  1  0  0  0  0
155173  1  0  0  0  0
177179  1  0  0  0  0
177180  1  0  0  0  0
177178  1  0  0  0  0
177181  1  0  0  0  0
182183  1  0  0  0  0
182190  1  0  0  0  0
183186  1  0  0  0  0
183184  1  0  0  0  0
184193  1  0  0  0  0
184192  1  0  0  0  0
183185  1  0  0  0  0
186187  1  0  0  0  0
154187  1  0  0  0  0
187188  2  0  0  0  0
182189  1  0  0  0  0
182191  1  0  0  0  0
184194  1  0  0  0  0
185195  1  0  0  0  0
185196  1  0  0  0  0
185197  1  0  0  0  0
M  END
> <atom.dprop.PartialCharge>
0.643930 -0.545220 -0.135520 -0.076300 -0.131320 0.001060 -0.075420 0.009930 -0.198890 0.126570 -0.324870 0.111430 -0.152220 -0.082600 -0.045000 -0.107770 -0.131650 -0.103280 -0.113360 -0.107620 0.142450 -0.561340 -0.101050 -0.131320 -0.076300 0.154950 0.143040 0.144260 0.045790 0.045790 0.045790 0.155230 0.143110 0.136920 0.134610 0.142120 0.132800 0.088540 0.302910 0.044640 0.044640 0.044640 0.143040 0.154950 0.674510 -0.597330 -0.140000 -0.092950 -0.126880 -0.010010 -0.077230 0.006500 -0.144630 0.128720 -0.326740 0.112360 -0.202330 -0.082400 -0.041790 -0.104810 -0.131950 -0.111030 -0.104420 -0.108080 0.151440 -0.564270 -0.112020 -0.126880 -0.092950 0.147850 0.140440 0.156750 0.046570 0.046570 0.046570 0.141210 0.141610 0.137130 0.139530 0.141220 0.136460 0.085720 0.311950 0.046260 0.046260 0.046260 0.140440 0.147850 0.674320 -0.622760 -0.141390 -0.096820 -0.127640 -0.003120 -0.077540 0.007390 -0.147800 0.127250 -0.325160 0.111440 -0.199940 -0.080410 -0.045570 -0.108880 -0.133990 -0.102970 -0.110710 -0.103710 0.150440 -0.568260 -0.102630 -0.127640 -0.096820 0.148850 0.143030 0.156380 0.046310 0.046310 0.046310 0.141840 0.140020 0.134470 0.133740 0.141980 0.132250 0.087730 0.308010 0.044230 0.044230 0.044230 0.143030 0.148850 0.675230 -0.603420 -0.143500 -0.092520 -0.124440 -0.007090 -0.076870 0.010660 -0.145110 0.126770 -0.325690 0.114050 -0.203670 -0.083150 -0.049650 -0.099100 -0.119750 -0.110990 -0.111320 -0.111920 0.166220 -0.557870 -0.114110 -0.124440 -0.092520 0.146470 0.142160 0.158180 0.044780 0.044780 0.044780 0.140560 0.140160 0.145500 0.162570 0.136200 0.131760 0.079320 0.330150 0.046900 0.046900 0.046900 0.142160 0.146470 0.126760 -0.429660 0.051290 0.051290 0.051290 -0.114100 0.185800 -0.114100 -0.114100 -0.452830 0.748030 -0.607940 0.051480 0.051480 0.051480 0.051480 0.051480 0.051480 0.051480 0.051480 0.051480

$$$$
