mop_tetramer.pdb
 OpenBabel03192519573D

197208  0  0  1  0  0  0  0  0999 V2000
   -3.2860   -4.7610    0.0180 C   0  0  0  0  0  0  0  0  0  0  0  0
   -3.8070   -5.2760   -0.9580 O   0  0  0  0  0  0  0  0  0  0  0  0
   -2.8230   -3.3630    0.0490 C   0  0  0  0  0  0  0  0  0  0  0  0
   -1.8470   -2.8970    0.9310 C   0  0  0  0  0  0  0  0  0  0  0  0
   -1.5420   -1.5350    0.9600 C   0  0  0  0  0  0  0  0  0  0  0  0
   -2.2040   -0.6330    0.1030 C   0  0  0  0  0  0  0  0  0  0  0  0
   -1.8960    0.8060    0.0980 C   0  0  0  0  0  0  0  0  0  0  0  0
   -0.6110    1.3030   -0.1900 C   0  0  0  0  0  0  0  0  0  0  0  0
   -0.3660    2.6860   -0.0950 C   0  0  0  0  0  0  0  0  0  0  0  0
   -1.3820    3.5860    0.2010 C   0  0  0  0  0  0  0  0  0  0  0  0
   -0.9780    4.8910    0.2470 O   0  0  0  0  0  0  0  0  0  0  0  0
   -1.9800    5.8610    0.5040 C   0  0  0  0  0  0  0  0  0  0  0  0
   -2.6680    3.1060    0.4110 C   0  0  0  0  0  0  0  0  0  0  0  0
   -2.9170    1.7320    0.3720 C   0  0  0  0  0  0  0  0  0  0  0  0
    0.4960    0.4280   -0.5620 C   0  0  0  0  0  0  0  0  0  0  0  0
    0.4350   -0.4520   -1.6610 C   0  0  0  0  0  0  0  0  0  0  0  0
    1.4810   -1.3160   -1.9640 C   0  0  0  0  0  0  0  0  0  0  0  0
    2.6120   -1.2780   -1.1790 C   0  0  0  0  0  0  0  0  0  0  0  0
    2.6900   -0.3820   -0.0960 C   0  0  0  0  0  0  0  0  0  0  0  0
    1.6380    0.4500    0.2230 C   0  0  0  0  0  0  0  0  0  0  0  0
    3.8870   -0.3730    0.8020 C   0  0  1  0  0  0  0  0  0  0  0  0
    3.8670   -1.6960    1.4090 N   0  0  0  0  0  0  0  0  0  0  0  0
    5.0530   -0.0280   -0.1440 C   0  0  0  0  0  0  0  0  0  0  0  0
   -3.1560   -1.1330   -0.7950 C   0  0  0  0  0  0  0  0  0  0  0  0
   -3.4590   -2.4860   -0.8300 C   0  0  0  0  0  0  0  0  0  0  0  0
   -1.3250   -3.5760    1.5980 H   0  0  0  0  0  0  0  0  0  0  0  0
   -0.7750   -1.1790    1.6490 H   0  0  0  0  0  0  0  0  0  0  0  0
    0.6400    3.0700   -0.2620 H   0  0  0  0  0  0  0  0  0  0  0  0
   -1.4950    6.8420    0.5050 H   0  0  0  0  0  0  0  0  0  0  0  0
   -2.4350    5.7120    1.4880 H   0  0  0  0  0  0  0  0  0  0  0  0
   -2.7360    5.8610   -0.2880 H   0  0  0  0  0  0  0  0  0  0  0  0
   -3.5000    3.7670    0.6220 H   0  0  0  0  0  0  0  0  0  0  0  0
   -3.9260    1.3720    0.5660 H   0  0  0  0  0  0  0  0  0  0  0  0
   -0.4560   -0.4880   -2.2800 H   0  0  0  0  0  0  0  0  0  0  0  0
    1.4140   -2.0140   -2.7900 H   0  0  0  0  0  0  0  0  0  0  0  0
    3.4300   -1.9610   -1.3970 H   0  0  0  0  0  0  0  0  0  0  0  0
    1.6960    1.0880    1.1050 H   0  0  0  0  0  0  0  0  0  0  0  0
    3.8140    0.3840    1.5930 H   0  0  0  0  0  0  0  0  0  0  0  0
    4.1060   -2.4120    0.7520 H   0  0  0  0  0  0  0  0  0  0  0  0
    5.3050   -0.8530   -0.8170 H   0  0  0  0  0  0  0  0  0  0  0  0
    5.9690    0.2590    0.3510 H   0  0  0  0  0  0  0  0  0  0  0  0
    4.8010    0.8450   -0.7600 H   0  0  0  0  0  0  0  0  0  0  0  0
   -3.6650   -0.4630   -1.4840 H   0  0  0  0  0  0  0  0  0  0  0  0
   -4.2070   -2.8560   -1.5260 H   0  0  0  0  0  0  0  0  0  0  0  0
    2.9280   -2.0350    2.3870 C   0  0  0  0  0  0  0  0  0  0  0  0
    2.4920   -1.2310    3.2040 O   0  0  0  0  0  0  0  0  0  0  0  0
    2.3850   -3.4440    2.3280 C   0  0  0  0  0  0  0  0  0  0  0  0
    2.9140   -4.4090    1.4650 C   0  0  0  0  0  0  0  0  0  0  0  0
    2.3010   -5.6530    1.2920 C   0  0  0  0  0  0  0  0  0  0  0  0
    1.1580   -6.0070    2.0180 C   0  0  0  0  0  0  0  0  0  0  0  0
    0.5240   -7.3360    1.8310 C   0  0  0  0  0  0  0  0  0  0  0  0
    1.1370   -8.5590    2.1460 C   0  0  0  0  0  0  0  0  0  0  0  0
    0.5130   -9.8040    1.8620 C   0  0  0  0  0  0  0  0  0  0  0  0
   -0.7490   -9.8600    1.3090 C   0  0  0  0  0  0  0  0  0  0  0  0
   -1.2820  -11.0990    1.1050 O   0  0  0  0  0  0  0  0  0  0  0  0
   -2.6670  -11.1380    0.7660 C   0  0  0  0  0  0  0  0  0  0  0  0
   -1.3450   -8.6600    0.9800 C   0  0  0  0  0  0  0  0  0  0  0  0
   -0.7150   -7.4270    1.2250 C   0  0  0  0  0  0  0  0  0  0  0  0
    2.4890   -8.5830    2.6470 C   0  0  0  0  0  0  0  0  0  0  0  0
    2.8820   -7.9260    3.8240 C   0  0  0  0  0  0  0  0  0  0  0  0
    4.2140   -7.8790    4.2000 C   0  0  0  0  0  0  0  0  0  0  0  0
    5.1410   -8.5340    3.4180 C   0  0  0  0  0  0  0  0  0  0  0  0
    4.7310   -9.2070    2.2500 C   0  0  0  0  0  0  0  0  0  0  0  0
    3.4230   -9.2040    1.8480 C   0  0  0  0  0  0  0  0  0  0  0  0
    5.7060   -9.8760    1.3440 C   0  0  1  0  0  0  0  0  0  0  0  0
    6.5260   -8.7750    0.8690 N   0  0  0  0  0  0  0  0  0  0  0  0
    6.3280  -10.9490    2.2560 C   0  0  0  0  0  0  0  0  0  0  0  0
    0.6510   -5.0590    2.9240 C   0  0  0  0  0  0  0  0  0  0  0  0
    1.2520   -3.7910    3.0750 C   0  0  0  0  0  0  0  0  0  0  0  0
    3.8090   -4.2350    0.8910 H   0  0  0  0  0  0  0  0  0  0  0  0
    2.7380   -6.3510    0.5780 H   0  0  0  0  0  0  0  0  0  0  0  0
    1.0430  -10.7360    2.0560 H   0  0  0  0  0  0  0  0  0  0  0  0
   -2.9640  -12.1860    0.6600 H   0  0  0  0  0  0  0  0  0  0  0  0
   -2.8590  -10.6480   -0.1950 H   0  0  0  0  0  0  0  0  0  0  0  0
   -3.2780  -10.6940    1.5600 H   0  0  0  0  0  0  0  0  0  0  0  0
   -2.3120   -8.6640    0.5050 H   0  0  0  0  0  0  0  0  0  0  0  0
   -1.1850   -6.5050    0.9130 H   0  0  0  0  0  0  0  0  0  0  0  0
    2.1450   -7.4000    4.4210 H   0  0  0  0  0  0  0  0  0  0  0  0
    4.5290   -7.3280    5.0780 H   0  0  0  0  0  0  0  0  0  0  0  0
    6.1880   -8.5010    3.7000 H   0  0  0  0  0  0  0  0  0  0  0  0
    3.1460   -9.6390    0.8850 H   0  0  0  0  0  0  0  0  0  0  0  0
    5.2280  -10.3570    0.4810 H   0  0  0  0  0  0  0  0  0  0  0  0
    7.1510   -8.4500    1.5840 H   0  0  0  0  0  0  0  0  0  0  0  0
    6.9950  -10.5240    3.0130 H   0  0  0  0  0  0  0  0  0  0  0  0
    6.8820  -11.7200    1.7420 H   0  0  0  0  0  0  0  0  0  0  0  0
    5.5400  -11.5080    2.7790 H   0  0  0  0  0  0  0  0  0  0  0  0
   -0.2340   -5.2970    3.5120 H   0  0  0  0  0  0  0  0  0  0  0  0
    0.8050   -3.0700    3.7580 H   0  0  0  0  0  0  0  0  0  0  0  0
    6.0320   -7.8230   -0.0140 C   0  0  0  0  0  0  0  0  0  0  0  0
    5.1830   -8.0760   -0.8750 O   0  0  0  0  0  0  0  0  0  0  0  0
    6.5000   -6.3950    0.2100 C   0  0  0  0  0  0  0  0  0  0  0  0
    7.4310   -6.0820    1.2180 C   0  0  0  0  0  0  0  0  0  0  0  0
    7.7510   -4.7740    1.5350 C   0  0  0  0  0  0  0  0  0  0  0  0
    7.1970   -3.6980    0.8640 C   0  0  0  0  0  0  0  0  0  0  0  0
    7.5460   -2.3230    1.2950 C   0  0  0  0  0  0  0  0  0  0  0  0
    8.7930   -1.7110    1.0760 C   0  0  0  0  0  0  0  0  0  0  0  0
    8.9990   -0.3670    1.4850 C   0  0  0  0  0  0  0  0  0  0  0  0
    7.9960    0.3750    2.1060 C   0  0  0  0  0  0  0  0  0  0  0  0
    8.2730    1.6940    2.3210 O   0  0  0  0  0  0  0  0  0  0  0  0
    7.1650    2.5530    2.5810 C   0  0  0  0  0  0  0  0  0  0  0  0
    6.8370   -0.2850    2.4710 C   0  0  0  0  0  0  0  0  0  0  0  0
    6.6540   -1.6280    2.1050 C   0  0  0  0  0  0  0  0  0  0  0  0
    9.9390   -2.4860    0.6000 C   0  0  0  0  0  0  0  0  0  0  0  0
    9.9450   -3.1480   -0.6330 C   0  0  0  0  0  0  0  0  0  0  0  0
   11.0030   -3.9830   -0.9780 C   0  0  0  0  0  0  0  0  0  0  0  0
   12.0780   -4.1400   -0.1040 C   0  0  0  0  0  0  0  0  0  0  0  0
   12.0920   -3.4840    1.1380 C   0  0  0  0  0  0  0  0  0  0  0  0
   11.0110   -2.6750    1.4790 C   0  0  0  0  0  0  0  0  0  0  0  0
   13.1770   -3.7020    2.1760 C   0  0  1  0  0  0  0  0  0  0  0  0
   13.1650   -5.1030    2.5610 N   0  0  0  0  0  0  0  0  0  0  0  0
   14.5220   -3.2480    1.6100 C   0  0  0  0  0  0  0  0  0  0  0  0
    6.3100   -3.9900   -0.1970 C   0  0  0  0  0  0  0  0  0  0  0  0
    5.9550   -5.3280   -0.5210 C   0  0  0  0  0  0  0  0  0  0  0  0
    7.9340   -6.8350    1.7990 H   0  0  0  0  0  0  0  0  0  0  0  0
    8.4780   -4.5850    2.3690 H   0  0  0  0  0  0  0  0  0  0  0  0
    9.9680    0.1020    1.3250 H   0  0  0  0  0  0  0  0  0  0  0  0
    7.5630    3.5530    2.7820 H   0  0  0  0  0  0  0  0  0  0  0  0
    6.6060    2.2460    3.4690 H   0  0  0  0  0  0  0  0  0  0  0  0
    6.5060    2.6270    1.7080 H   0  0  0  0  0  0  0  0  0  0  0  0
    6.0100    0.2190    2.9610 H   0  0  0  0  0  0  0  0  0  0  0  0
    5.7650   -2.1400    2.4480 H   0  0  0  0  0  0  0  0  0  0  0  0
    9.0980   -3.0540   -1.3070 H   0  0  0  0  0  0  0  0  0  0  0  0
   10.9740   -4.5280   -1.9170 H   0  0  0  0  0  0  0  0  0  0  0  0
   12.8860   -4.8070   -0.3880 H   0  0  0  0  0  0  0  0  0  0  0  0
   10.9710   -2.2320    2.4760 H   0  0  0  0  0  0  0  0  0  0  0  0
   12.9690   -3.1100    3.0760 H   0  0  0  0  0  0  0  0  0  0  0  0
   13.6170   -5.6960    1.8910 H   0  0  0  0  0  0  0  0  0  0  0  0
   14.8200   -3.8340    0.7330 H   0  0  0  0  0  0  0  0  0  0  0  0
   15.3160   -3.3420    2.3550 H   0  0  0  0  0  0  0  0  0  0  0  0
   14.4690   -2.1970    1.2980 H   0  0  0  0  0  0  0  0  0  0  0  0
    5.8720   -3.1860   -0.7780 H   0  0  0  0  0  0  0  0  0  0  0  0
    5.2380   -5.5230   -1.3100 H   0  0  0  0  0  0  0  0  0  0  0  0
   12.0370   -5.5840    3.2320 C   0  0  0  0  0  0  0  0  0  0  0  0
   11.4660   -4.9430    4.1100 O   0  0  0  0  0  0  0  0  0  0  0  0
   11.4610   -6.8920    2.7670 C   0  0  0  0  0  0  0  0  0  0  0  0
   12.0170   -7.5890    1.6990 C   0  0  0  0  0  0  0  0  0  0  0  0
   11.4670   -8.7720    1.2110 C   0  0  0  0  0  0  0  0  0  0  0  0
   10.3160   -9.3130    1.7670 C   0  0  0  0  0  0  0  0  0  0  0  0
    9.7780  -10.5610    1.1800 C   0  0  0  0  0  0  0  0  0  0  0  0
   10.3550  -11.8360    1.3390 C   0  0  0  0  0  0  0  0  0  0  0  0
    9.7230  -12.9690    0.7610 C   0  0  0  0  0  0  0  0  0  0  0  0
    8.5400  -12.8660    0.0290 C   0  0  0  0  0  0  0  0  0  0  0  0
    7.9600  -14.0430   -0.3480 O   0  0  0  0  0  0  0  0  0  0  0  0
    6.5840  -14.0030   -0.7230 C   0  0  0  0  0  0  0  0  0  0  0  0
    8.0820  -11.5980   -0.2740 C   0  0  0  0  0  0  0  0  0  0  0  0
    8.7330  -10.4740    0.2600 C   0  0  0  0  0  0  0  0  0  0  0  0
   11.6860  -11.9940    1.9320 C   0  0  0  0  0  0  0  0  0  0  0  0
   11.9880  -11.6010    3.2390 C   0  0  0  0  0  0  0  0  0  0  0  0
   13.3000  -11.6440    3.7070 C   0  0  0  0  0  0  0  0  0  0  0  0
   14.3260  -12.0940    2.8770 C   0  0  0  0  0  0  0  0  0  0  0  0
   14.0500  -12.4920    1.5650 C   0  0  0  0  0  0  0  0  0  0  0  0
   12.7290  -12.4370    1.1080 C   0  0  0  0  0  0  0  0  0  0  0  0
   15.1370  -12.8790    0.5840 C   0  0  1  0  0  0  0  0  0  0  0  0
   15.9800  -11.7300    0.2870 N   0  0  0  0  0  0  0  0  0  0  0  0
   15.8940  -14.1080    1.0810 C   0  0  0  0  0  0  0  0  0  0  0  0
    9.7240   -8.6070    2.8360 C   0  0  0  0  0  0  0  0  0  0  0  0
   10.2860   -7.4030    3.3260 C   0  0  0  0  0  0  0  0  0  0  0  0
   12.8830   -7.2170    1.1930 H   0  0  0  0  0  0  0  0  0  0  0  0
   11.9480   -9.2830    0.3790 H   0  0  0  0  0  0  0  0  0  0  0  0
   10.1750  -13.9530    0.8750 H   0  0  0  0  0  0  0  0  0  0  0  0
    6.2930  -15.0150   -1.0230 H   0  0  0  0  0  0  0  0  0  0  0  0
    6.4110  -13.3510   -1.5840 H   0  0  0  0  0  0  0  0  0  0  0  0
    5.9470  -13.7140    0.1220 H   0  0  0  0  0  0  0  0  0  0  0  0
    7.1750  -11.4300   -0.8470 H   0  0  0  0  0  0  0  0  0  0  0  0
    8.3960   -9.4900   -0.0380 H   0  0  0  0  0  0  0  0  0  0  0  0
   11.2050  -11.2090    3.8840 H   0  0  0  0  0  0  0  0  0  0  0  0
   13.5250  -11.2960    4.7110 H   0  0  0  0  0  0  0  0  0  0  0  0
   15.3450  -12.1020    3.2520 H   0  0  0  0  0  0  0  0  0  0  0  0
   12.5180  -12.6670    0.0620 H   0  0  0  0  0  0  0  0  0  0  0  0
   14.6740  -13.1700   -0.3700 H   0  0  0  0  0  0  0  0  0  0  0  0
   16.7530  -11.4960    0.8920 H   0  0  0  0  0  0  0  0  0  0  0  0
   16.4150  -13.9240    2.0260 H   0  0  0  0  0  0  0  0  0  0  0  0
   16.6330  -14.4420    0.3470 H   0  0  0  0  0  0  0  0  0  0  0  0
   15.1930  -14.9380    1.2490 H   0  0  0  0  0  0  0  0  0  0  0  0
    8.8110   -8.9720    3.3000 H   0  0  0  0  0  0  0  0  0  0  0  0
    9.7880   -6.8520    4.1240 H   0  0  0  0  0  0  0  0  0  0  0  0
   -3.7550   -6.6010    1.3450 C   0  0  0  0  0  0  0  0  0  0  0  0
   -3.1710   -5.3050    1.2520 O   0  0  0  0  0  0  0  0  0  0  0  0
   -4.8140   -6.5190    1.5720 H   0  0  0  0  0  0  0  0  0  0  0  0
   -3.2650   -7.1400    2.1620 H   0  0  0  0  0  0  0  0  0  0  0  0
   -3.6250   -7.1630    0.4140 H   0  0  0  0  0  0  0  0  0  0  0  0
   17.0480   -7.4470   -1.2000 C   0  0  0  0  0  0  0  0  0  0  0  0
   15.8430   -8.3910   -1.1110 C   0  0  0  0  0  0  0  0  0  0  0  0
   14.8140   -7.7350   -0.2040 C   0  0  0  0  0  0  0  0  0  0  0  0
   15.2650   -8.5700   -2.5240 C   0  0  0  0  0  0  0  0  0  0  0  0
   16.3030   -9.6320   -0.4980 O   0  0  0  0  0  0  0  0  0  0  0  0
   15.4490  -10.6910   -0.4400 C   0  0  0  0  0  0  0  0  0  0  0  0
   14.3340  -10.7170   -0.9400 O   0  0  0  0  0  0  0  0  0  0  0  0
   16.7580   -6.4740   -1.6180 H   0  0  0  0  0  0  0  0  0  0  0  0
   17.4890   -7.2720   -0.2120 H   0  0  0  0  0  0  0  0  0  0  0  0
   17.8310   -7.8730   -1.8330 H   0  0  0  0  0  0  0  0  0  0  0  0
   15.1740   -7.6640    0.8290 H   0  0  0  0  0  0  0  0  0  0  0  0
   13.9130   -8.3460   -0.1940 H   0  0  0  0  0  0  0  0  0  0  0  0
   14.5350   -6.7330   -0.5480 H   0  0  0  0  0  0  0  0  0  0  0  0
   15.9600   -9.1230   -3.1620 H   0  0  0  0  0  0  0  0  0  0  0  0
   14.3190   -9.1200   -2.5280 H   0  0  0  0  0  0  0  0  0  0  0  0
   15.0460   -7.6010   -2.9860 H   0  0  0  0  0  0  0  0  0  0  0  0
  1  3  1  0  0  0  0
  1178  1  0  0  0  0
  2  1  2  0  0  0  0
  3  4  1  0  0  0  0
  4  5  2  0  0  0  0
  4 26  1  0  0  0  0
  5 27  1  0  0  0  0
  6  5  1  0  0  0  0
  7  6  1  0  0  0  0
  7 14  1  0  0  0  0
  8  9  1  0  0  0  0
  8  7  2  0  0  0  0
  9 10  2  0  0  0  0
 10 11  1  0  0  0  0
 10 13  1  0  0  0  0
 11 12  1  0  0  0  0
 12 29  1  0  0  0  0
 12 30  1  0  0  0  0
 13 32  1  0  0  0  0
 14 13  2  0  0  0  0
 14 33  1  0  0  0  0
 15  8  1  0  0  0  0
 15 20  1  0  0  0  0
 16 15  2  0  0  0  0
 17 16  1  0  0  0  0
 17 18  2  0  0  0  0
 18 19  1  0  0  0  0
 19 20  2  0  0  0  0
 19 21  1  0  0  0  0
 20 37  1  0  0  0  0
 21 22  1  0  0  0  0
 21 38  1  1  0  0  0
 22 45  1  0  0  0  0
 23 41  1  0  0  0  0
 23 21  1  0  0  0  0
 24  6  2  0  0  0  0
 25 24  1  0  0  0  0
 25  3  2  0  0  0  0
 28  9  1  0  0  0  0
 31 12  1  0  0  0  0
 34 16  1  0  0  0  0
 35 17  1  0  0  0  0
 36 18  1  0  0  0  0
 39 22  1  0  0  0  0
 40 23  1  0  0  0  0
 42 23  1  0  0  0  0
 43 24  1  0  0  0  0
 44 25  1  0  0  0  0
 45 46  2  0  0  0  0
 47 45  1  0  0  0  0
 47 69  1  0  0  0  0
 48 47  2  0  0  0  0
 49 48  1  0  0  0  0
 49 50  2  0  0  0  0
 50 68  1  0  0  0  0
 51 50  1  0  0  0  0
 51 52  1  0  0  0  0
 52 59  1  0  0  0  0
 53 72  1  0  0  0  0
 53 52  2  0  0  0  0
 54 53  1  0  0  0  0
 55 54  1  0  0  0  0
 56 55  1  0  0  0  0
 56 75  1  0  0  0  0
 57 58  1  0  0  0  0
 57 54  2  0  0  0  0
 58 51  2  0  0  0  0
 59 60  1  0  0  0  0
 60 61  2  0  0  0  0
 60 78  1  0  0  0  0
 61 79  1  0  0  0  0
 62 80  1  0  0  0  0
 62 61  1  0  0  0  0
 63 62  2  0  0  0  0
 64 63  1  0  0  0  0
 64 59  2  0  0  0  0
 65 82  1  6  0  0  0
 65 63  1  0  0  0  0
 65 67  1  0  0  0  0
 66 65  1  0  0  0  0
 66 83  1  0  0  0  0
 67 86  1  0  0  0  0
 67 84  1  0  0  0  0
 68 69  2  0  0  0  0
 68 87  1  0  0  0  0
 69 88  1  0  0  0  0
 70 48  1  0  0  0  0
 71 49  1  0  0  0  0
 73 56  1  0  0  0  0
 74 56  1  0  0  0  0
 76 57  1  0  0  0  0
 77 58  1  0  0  0  0
 81 64  1  0  0  0  0
 85 67  1  0  0  0  0
 89 91  1  0  0  0  0
 89 66  1  0  0  0  0
 90 89  2  0  0  0  0
 91 92  1  0  0  0  0
 92 93  2  0  0  0  0
 92114  1  0  0  0  0
 93115  1  0  0  0  0
 94 95  1  0  0  0  0
 94 93  1  0  0  0  0
 95102  1  0  0  0  0
 96 95  2  0  0  0  0
 96 97  1  0  0  0  0
 97 98  2  0  0  0  0
 98 99  1  0  0  0  0
 98101  1  0  0  0  0
 99100  1  0  0  0  0
100117  1  0  0  0  0
100118  1  0  0  0  0
101120  1  0  0  0  0
102121  1  0  0  0  0
102101  2  0  0  0  0
103 96  1  0  0  0  0
103108  1  0  0  0  0
104103  2  0  0  0  0
105104  1  0  0  0  0
105106  2  0  0  0  0
106107  1  0  0  0  0
107108  2  0  0  0  0
107109  1  0  0  0  0
108125  1  0  0  0  0
109110  1  0  0  0  0
109126  1  1  0  0  0
110133  1  0  0  0  0
111109  1  0  0  0  0
111129  1  0  0  0  0
112 94  2  0  0  0  0
113112  1  0  0  0  0
113 91  2  0  0  0  0
116 97  1  0  0  0  0
119100  1  0  0  0  0
122104  1  0  0  0  0
123105  1  0  0  0  0
124106  1  0  0  0  0
127110  1  0  0  0  0
128111  1  0  0  0  0
130111  1  0  0  0  0
131112  1  0  0  0  0
132113  1  0  0  0  0
133134  2  0  0  0  0
135133  1  0  0  0  0
135157  1  0  0  0  0
136135  2  0  0  0  0
137136  1  0  0  0  0
137138  2  0  0  0  0
138156  1  0  0  0  0
139140  1  0  0  0  0
139138  1  0  0  0  0
140147  1  0  0  0  0
141160  1  0  0  0  0
141140  2  0  0  0  0
142141  1  0  0  0  0
143142  1  0  0  0  0
144143  1  0  0  0  0
144163  1  0  0  0  0
145142  2  0  0  0  0
145146  1  0  0  0  0
146139  2  0  0  0  0
147148  1  0  0  0  0
148149  2  0  0  0  0
148166  1  0  0  0  0
149167  1  0  0  0  0
150168  1  0  0  0  0
150149  1  0  0  0  0
151150  2  0  0  0  0
152151  1  0  0  0  0
152147  2  0  0  0  0
153170  1  6  0  0  0
153155  1  0  0  0  0
153151  1  0  0  0  0
154153  1  0  0  0  0
154171  1  0  0  0  0
155174  1  0  0  0  0
155172  1  0  0  0  0
156175  1  0  0  0  0
156157  2  0  0  0  0
157176  1  0  0  0  0
158136  1  0  0  0  0
159137  1  0  0  0  0
161144  1  0  0  0  0
162144  1  0  0  0  0
164145  1  0  0  0  0
165146  1  0  0  0  0
169152  1  0  0  0  0
173155  1  0  0  0  0
177179  1  0  0  0  0
177180  1  0  0  0  0
178177  1  0  0  0  0
181177  1  0  0  0  0
182183  1  0  0  0  0
182190  1  0  0  0  0
183186  1  0  0  0  0
183184  1  0  0  0  0
184193  1  0  0  0  0
184192  1  0  0  0  0
185183  1  0  0  0  0
186187  1  0  0  0  0
187154  1  0  0  0  0
188187  2  0  0  0  0
189182  1  0  0  0  0
191182  1  0  0  0  0
194184  1  0  0  0  0
195185  1  0  0  0  0
196185  1  0  0  0  0
197185  1  0  0  0  0
M  END
