mop_tetramer.pdb
 OpenBabel09232415453D

197208  0  0  1  0  0  0  0  0999 V2000
   -3.2010   -5.0690    0.0810 C   0  0  0  0  0  0  0  0  0  0  0  0
   -4.1080   -5.4220   -0.7240 O   0  0  0  0  0  0  0  0  0  0  0  0
   -2.8660   -3.6180    0.0960 C   0  0  0  0  0  0  0  0  0  0  0  0
   -1.8190   -3.0510    0.9820 C   0  0  0  0  0  0  0  0  0  0  0  0
   -1.5110   -1.6240    1.0270 C   0  0  0  0  0  0  0  0  0  0  0  0
   -2.2050   -0.6590    0.1610 C   0  0  0  0  0  0  0  0  0  0  0  0
   -1.8870    0.7840    0.1360 C   0  0  0  0  0  0  0  0  0  0  0  0
   -0.5110    1.3160   -0.1490 C   0  0  0  0  0  0  0  0  0  0  0  0
   -0.2960    2.7750   -0.0540 C   0  0  0  0  0  0  0  0  0  0  0  0
   -1.3850    3.6890    0.1860 C   0  0  0  0  0  0  0  0  0  0  0  0
   -1.0380    5.0190    0.2050 O   0  0  0  0  0  0  0  0  0  0  0  0
   -2.0480    5.9580    0.5130 C   0  0  0  0  0  0  0  0  0  0  0  0
   -2.7310    3.1970    0.3830 C   0  0  0  0  0  0  0  0  0  0  0  0
   -2.9730    1.7650    0.3470 C   0  0  0  0  0  0  0  0  0  0  0  0
    0.6290    0.4640   -0.5220 C   0  0  0  0  0  0  0  0  0  0  0  0
    0.5860   -0.4340   -1.6900 C   0  0  0  0  0  0  0  0  0  0  0  0
    1.7070   -1.2940   -2.0270 C   0  0  0  0  0  0  0  0  0  0  0  0
    2.9120   -1.2700   -1.2150 C   0  0  0  0  0  0  0  0  0  0  0  0
    2.9900   -0.4000   -0.0390 C   0  0  0  0  0  0  0  0  0  0  0  0
    1.8510    0.4470    0.3000 C   0  0  0  0  0  0  0  0  0  0  0  0
    4.1240   -0.5370    0.9720 C   0  0  1  0  0  0  0  0  0  0  0  0
    4.2530   -1.8930    1.5340 N   0  0  0  0  0  0  0  0  0  0  0  0
    5.4400   -0.1650    0.2700 C   0  0  0  0  0  0  0  0  0  0  0  0
   -3.2110   -1.2160   -0.7540 C   0  0  0  0  0  0  0  0  0  0  0  0
   -3.5210   -2.6260   -0.7870 C   0  0  0  0  0  0  0  0  0  0  0  0
   -1.1580   -3.7250    1.5220 H   0  0  0  0  0  0  0  0  0  0  0  0
   -0.6430   -1.3160    1.6040 H   0  0  0  0  0  0  0  0  0  0  0  0
    0.7080    3.1590   -0.1640 H   0  0  0  0  0  0  0  0  0  0  0  0
   -1.5880    6.9500    0.5330 H   0  0  0  0  0  0  0  0  0  0  0  0
   -2.4810    5.7710    1.5020 H   0  0  0  0  0  0  0  0  0  0  0  0
   -2.8220    5.9630   -0.2620 H   0  0  0  0  0  0  0  0  0  0  0  0
   -3.5530    3.8390    0.6530 H   0  0  0  0  0  0  0  0  0  0  0  0
   -3.9670    1.3910    0.5650 H   0  0  0  0  0  0  0  0  0  0  0  0
   -0.3680   -0.6290   -2.1650 H   0  0  0  0  0  0  0  0  0  0  0  0
    1.5060   -2.1920   -2.6010 H   0  0  0  0  0  0  0  0  0  0  0  0
    3.5410   -2.1530   -1.2300 H   0  0  0  0  0  0  0  0  0  0  0  0
    1.8130    0.8760    1.2960 H   0  0  0  0  0  0  0  0  0  0  0  0
    3.9890    0.1850    1.7850 H   0  0  0  0  0  0  0  0  0  0  0  0
    4.2250   -2.5600    0.7810 H   0  0  0  0  0  0  0  0  0  0  0  0
    5.7100   -0.8860   -0.5090 H   0  0  0  0  0  0  0  0  0  0  0  0
    6.2680   -0.1200    0.9850 H   0  0  0  0  0  0  0  0  0  0  0  0
    5.3630    0.8200   -0.2080 H   0  0  0  0  0  0  0  0  0  0  0  0
   -3.6450   -0.5760   -1.5130 H   0  0  0  0  0  0  0  0  0  0  0  0
   -4.2030   -3.0010   -1.5390 H   0  0  0  0  0  0  0  0  0  0  0  0
    3.1560   -2.2620    2.3590 C   0  0  0  0  0  0  0  0  0  0  0  0
    2.5240   -3.2620    1.9450 O   0  0  0  0  0  0  0  0  0  0  0  0
    3.0960   -1.9630    3.7940 C   0  0  0  0  0  0  0  0  0  0  0  0
    4.2520   -1.4090    4.5240 C   0  0  0  0  0  0  0  0  0  0  0  0
    4.2430   -1.2110    5.9630 C   0  0  0  0  0  0  0  0  0  0  0  0
    3.0480   -1.4890    6.7730 C   0  0  0  0  0  0  0  0  0  0  0  0
    3.0110   -1.2450    8.2280 C   0  0  0  0  0  0  0  0  0  0  0  0
    3.3290    0.0940    8.8330 C   0  0  0  0  0  0  0  0  0  0  0  0
    3.4190    0.1850   10.3010 C   0  0  0  0  0  0  0  0  0  0  0  0
    3.1010   -0.9280   11.1570 C   0  0  0  0  0  0  0  0  0  0  0  0
    3.1560   -0.6600   12.5010 O   0  0  0  0  0  0  0  0  0  0  0  0
    2.8830   -1.7210   13.3950 C   0  0  0  0  0  0  0  0  0  0  0  0
    2.7040   -2.1980   10.5900 C   0  0  0  0  0  0  0  0  0  0  0  0
    2.6680   -2.3520    9.1460 C   0  0  0  0  0  0  0  0  0  0  0  0
    3.5570    1.3090    8.0340 C   0  0  0  0  0  0  0  0  0  0  0  0
    2.5730    1.8010    7.0530 C   0  0  0  0  0  0  0  0  0  0  0  0
    2.8400    2.9690    6.2290 C   0  0  0  0  0  0  0  0  0  0  0  0
    4.0940    3.6900    6.3750 C   0  0  0  0  0  0  0  0  0  0  0  0
    5.1020    3.2280    7.3330 C   0  0  0  0  0  0  0  0  0  0  0  0
    4.8270    2.0470    8.1420 C   0  0  0  0  0  0  0  0  0  0  0  0
    6.5110    3.8010    7.3400 C   0  0  1  0  0  0  0  0  0  0  0  0
    7.2000    3.7150    6.0440 N   0  0  0  0  0  0  0  0  0  0  0  0
    6.4240    5.2790    7.7560 C   0  0  0  0  0  0  0  0  0  0  0  0
    1.8660   -1.9810    6.0500 C   0  0  0  0  0  0  0  0  0  0  0  0
    1.8840   -2.1880    4.6130 C   0  0  0  0  0  0  0  0  0  0  0  0
    5.1220   -1.0870    3.9620 H   0  0  0  0  0  0  0  0  0  0  0  0
    5.1070   -0.7240    6.4030 H   0  0  0  0  0  0  0  0  0  0  0  0
    3.7270    1.1270   10.7420 H   0  0  0  0  0  0  0  0  0  0  0  0
    3.0010   -1.3410   14.4140 H   0  0  0  0  0  0  0  0  0  0  0  0
    3.5910   -2.5450   13.2600 H   0  0  0  0  0  0  0  0  0  0  0  0
    1.8500   -2.0660   13.2830 H   0  0  0  0  0  0  0  0  0  0  0  0
    2.4820   -3.0660   11.1930 H   0  0  0  0  0  0  0  0  0  0  0  0
    2.4770   -3.3300    8.7170 H   0  0  0  0  0  0  0  0  0  0  0  0
    1.7600    1.1480    6.7580 H   0  0  0  0  0  0  0  0  0  0  0  0
    2.3240    3.0440    5.2770 H   0  0  0  0  0  0  0  0  0  0  0  0
    4.4320    4.2720    5.5250 H   0  0  0  0  0  0  0  0  0  0  0  0
    5.6650    1.5650    8.6390 H   0  0  0  0  0  0  0  0  0  0  0  0
    7.1140    3.3050    8.1130 H   0  0  0  0  0  0  0  0  0  0  0  0
    6.5720    4.0370    5.3230 H   0  0  0  0  0  0  0  0  0  0  0  0
    5.9020    5.8870    7.0080 H   0  0  0  0  0  0  0  0  0  0  0  0
    7.4240    5.7090    7.8960 H   0  0  0  0  0  0  0  0  0  0  0  0
    5.8840    5.3870    8.7030 H   0  0  0  0  0  0  0  0  0  0  0  0
    0.9400   -2.1430    6.5820 H   0  0  0  0  0  0  0  0  0  0  0  0
    0.9990   -2.5530    4.1050 H   0  0  0  0  0  0  0  0  0  0  0  0
    7.4990    2.3790    5.6540 C   0  0  0  0  0  0  0  0  0  0  0  0
    6.9640    2.0450    4.5750 O   0  0  0  0  0  0  0  0  0  0  0  0
    8.7260    1.6790    6.0500 C   0  0  0  0  0  0  0  0  0  0  0  0
    9.8270    2.3680    6.7480 C   0  0  0  0  0  0  0  0  0  0  0  0
   11.0970    1.7220    7.0290 C   0  0  0  0  0  0  0  0  0  0  0  0
   11.3310    0.3060    6.7140 C   0  0  0  0  0  0  0  0  0  0  0  0
   12.5950   -0.3750    7.0500 C   0  0  0  0  0  0  0  0  0  0  0  0
   13.1540   -0.4040    8.4460 C   0  0  0  0  0  0  0  0  0  0  0  0
   14.5080   -0.9710    8.6390 C   0  0  0  0  0  0  0  0  0  0  0  0
   15.2350   -1.5870    7.5700 C   0  0  0  0  0  0  0  0  0  0  0  0
   16.4610   -2.1030    7.9170 O   0  0  0  0  0  0  0  0  0  0  0  0
   17.2360   -2.6990    6.8950 C   0  0  0  0  0  0  0  0  0  0  0  0
   14.6680   -1.6350    6.2280 C   0  0  0  0  0  0  0  0  0  0  0  0
   13.3750   -1.0400    5.9860 C   0  0  0  0  0  0  0  0  0  0  0  0
   12.4350    0.1210    9.6180 C   0  0  0  0  0  0  0  0  0  0  0  0
   11.0850   -0.3410    9.9860 C   0  0  0  0  0  0  0  0  0  0  0  0
   10.3750    0.2230   11.1220 C   0  0  0  0  0  0  0  0  0  0  0  0
   10.9970    1.2640   11.9260 C   0  0  0  0  0  0  0  0  0  0  0  0
   12.3260    1.7690   11.5730 C   0  0  0  0  0  0  0  0  0  0  0  0
   13.0230    1.2040   10.4230 C   0  0  0  0  0  0  0  0  0  0  0  0
   12.8900    3.0240   12.2150 C   0  0  1  0  0  0  0  0  0  0  0  0
   12.0410    4.2180   12.0700 N   0  0  0  0  0  0  0  0  0  0  0  0
   13.1020    2.7440   13.7140 C   0  0  0  0  0  0  0  0  0  0  0  0
   10.2150   -0.4170    6.0840 C   0  0  0  0  0  0  0  0  0  0  0  0
    8.9530    0.2390    5.7870 C   0  0  0  0  0  0  0  0  0  0  0  0
    9.6650    3.3770    7.1090 H   0  0  0  0  0  0  0  0  0  0  0  0
   11.8240    2.2880    7.6010 H   0  0  0  0  0  0  0  0  0  0  0  0
   14.9510   -0.9030    9.6250 H   0  0  0  0  0  0  0  0  0  0  0  0
   18.1690   -3.0400    7.3460 H   0  0  0  0  0  0  0  0  0  0  0  0
   17.4810   -1.9730    6.1150 H   0  0  0  0  0  0  0  0  0  0  0  0
   16.7240   -3.5700    6.4770 H   0  0  0  0  0  0  0  0  0  0  0  0
   15.2070   -2.0320    5.3770 H   0  0  0  0  0  0  0  0  0  0  0  0
   12.9970   -0.9900    4.9700 H   0  0  0  0  0  0  0  0  0  0  0  0
   10.5130   -0.9100    9.2620 H   0  0  0  0  0  0  0  0  0  0  0  0
    9.2910    0.1750   11.1130 H   0  0  0  0  0  0  0  0  0  0  0  0
   10.3360    1.9190   12.4830 H   0  0  0  0  0  0  0  0  0  0  0  0
   13.8500    1.7660   10.0030 H   0  0  0  0  0  0  0  0  0  0  0  0
   13.8890    3.2350   11.8070 H   0  0  0  0  0  0  0  0  0  0  0  0
   11.0960    3.9710   12.3330 H   0  0  0  0  0  0  0  0  0  0  0  0
   12.1520    2.6010   14.2440 H   0  0  0  0  0  0  0  0  0  0  0  0
   13.6340    3.5700   14.2000 H   0  0  0  0  0  0  0  0  0  0  0  0
   13.7000    1.8370   13.8620 H   0  0  0  0  0  0  0  0  0  0  0  0
   10.3010   -1.4760    5.8850 H   0  0  0  0  0  0  0  0  0  0  0  0
    8.1470   -0.3180    5.3240 H   0  0  0  0  0  0  0  0  0  0  0  0
   11.8980    4.6550   10.7170 C   0  0  0  0  0  0  0  0  0  0  0  0
   10.7110    4.6710   10.3290 O   0  0  0  0  0  0  0  0  0  0  0  0
   12.8180    5.6060   10.0840 C   0  0  0  0  0  0  0  0  0  0  0  0
   13.8580    6.2810   10.8640 C   0  0  0  0  0  0  0  0  0  0  0  0
   14.7780    7.2170   10.2630 C   0  0  0  0  0  0  0  0  0  0  0  0
   14.6680    7.6800    8.8800 C   0  0  0  0  0  0  0  0  0  0  0  0
   15.5980    8.6980    8.3340 C   0  0  0  0  0  0  0  0  0  0  0  0
   17.0980    8.6260    8.5180 C   0  0  0  0  0  0  0  0  0  0  0  0
   17.9080    9.7850    8.1000 C   0  0  0  0  0  0  0  0  0  0  0  0
   17.3240   10.9410    7.4640 C   0  0  0  0  0  0  0  0  0  0  0  0
   18.2200   11.9200    7.1100 O   0  0  0  0  0  0  0  0  0  0  0  0
   17.7070   13.0590    6.4410 C   0  0  0  0  0  0  0  0  0  0  0  0
   15.8970   11.0140    7.2550 C   0  0  0  0  0  0  0  0  0  0  0  0
   15.0520    9.9070    7.6770 C   0  0  0  0  0  0  0  0  0  0  0  0
   17.7960    7.4650    9.1020 C   0  0  0  0  0  0  0  0  0  0  0  0
   17.5960    6.0930    8.6050 C   0  0  0  0  0  0  0  0  0  0  0  0
   18.2280    4.9520    9.2490 C   0  0  0  0  0  0  0  0  0  0  0  0
   19.0640    5.1470   10.4220 C   0  0  0  0  0  0  0  0  0  0  0  0
   19.2960    6.4940   10.9410 C   0  0  0  0  0  0  0  0  0  0  0  0
   18.6560    7.6300   10.2890 C   0  0  0  0  0  0  0  0  0  0  0  0
   20.1020    6.7420   12.2000 C   0  0  1  0  0  0  0  0  0  0  0  0
   19.5610    6.1370   13.4080 N   0  0  0  0  0  0  0  0  0  0  0  0
   21.5310    6.2190   11.9850 C   0  0  0  0  0  0  0  0  0  0  0  0
   13.6430    7.0020    8.0730 C   0  0  0  0  0  0  0  0  0  0  0  0
   12.7740    5.9770    8.6470 C   0  0  0  0  0  0  0  0  0  0  0  0
   14.0080    5.9800   11.8940 H   0  0  0  0  0  0  0  0  0  0  0  0
   15.7170    7.3410   10.7720 H   0  0  0  0  0  0  0  0  0  0  0  0
   18.9810    9.7460    8.2470 H   0  0  0  0  0  0  0  0  0  0  0  0
   18.5520   13.7100    6.1940 H   0  0  0  0  0  0  0  0  0  0  0  0
   17.0310   13.6220    7.0920 H   0  0  0  0  0  0  0  0  0  0  0  0
   17.2140   12.7780    5.5050 H   0  0  0  0  0  0  0  0  0  0  0  0
   15.4070   11.9110    6.9070 H   0  0  0  0  0  0  0  0  0  0  0  0
   13.9740   10.0300    7.6540 H   0  0  0  0  0  0  0  0  0  0  0  0
   16.7820    5.9020    7.9130 H   0  0  0  0  0  0  0  0  0  0  0  0
   17.8140    3.9670    9.0640 H   0  0  0  0  0  0  0  0  0  0  0  0
   19.2570    4.2960   11.0650 H   0  0  0  0  0  0  0  0  0  0  0  0
   18.6130    8.5680   10.8340 H   0  0  0  0  0  0  0  0  0  0  0  0
   20.2120    7.8230   12.3620 H   0  0  0  0  0  0  0  0  0  0  0  0
   19.3890    5.1420   13.3120 H   0  0  0  0  0  0  0  0  0  0  0  0
   21.5590    5.1340   11.8300 H   0  0  0  0  0  0  0  0  0  0  0  0
   22.1690    6.4490   12.8470 H   0  0  0  0  0  0  0  0  0  0  0  0
   21.9860    6.6920   11.1070 H   0  0  0  0  0  0  0  0  0  0  0  0
   13.5750    7.1940    7.0110 H   0  0  0  0  0  0  0  0  0  0  0  0
   12.0560    5.4570    8.0250 H   0  0  0  0  0  0  0  0  0  0  0  0
   -3.0220   -7.0860    1.2500 C   0  0  0  0  0  0  0  0  0  0  0  0
   -2.4630   -5.8050    0.9950 O   0  0  0  0  0  0  0  0  0  0  0  0
   -4.0160   -6.9860    1.6990 H   0  0  0  0  0  0  0  0  0  0  0  0
   -2.3810   -7.6020    1.9710 H   0  0  0  0  0  0  0  0  0  0  0  0
   -3.0640   -7.7000    0.3430 H   0  0  0  0  0  0  0  0  0  0  0  0
   17.2020   10.1800   14.1310 C   0  0  0  0  0  0  0  0  0  0  0  0
   16.9160    8.6590   14.1730 C   0  0  0  0  0  0  0  0  0  0  0  0
   16.3230    8.3180   15.5470 C   0  0  0  0  0  0  0  0  0  0  0  0
   15.9010    8.3960   13.0710 C   0  0  0  0  0  0  0  0  0  0  0  0
   18.1960    8.0500   13.8990 O   0  0  0  0  0  0  0  0  0  0  0  0
   18.3410    6.6800   13.8960 C   0  0  0  0  0  0  0  0  0  0  0  0
   17.6270    5.7500   14.3280 O   0  0  0  0  0  0  0  0  0  0  0  0
   16.2900   10.7610   14.3120 H   0  0  0  0  0  0  0  0  0  0  0  0
   17.9510   10.4510   14.8720 H   0  0  0  0  0  0  0  0  0  0  0  0
   17.5970   10.4640   13.1520 H   0  0  0  0  0  0  0  0  0  0  0  0
   17.0630    8.4380   16.3360 H   0  0  0  0  0  0  0  0  0  0  0  0
   15.9600    7.2810   15.5950 H   0  0  0  0  0  0  0  0  0  0  0  0
   15.4550    8.9490   15.7680 H   0  0  0  0  0  0  0  0  0  0  0  0
   16.3300    8.7070   12.1140 H   0  0  0  0  0  0  0  0  0  0  0  0
   15.6420    7.3370   13.0160 H   0  0  0  0  0  0  0  0  0  0  0  0
   14.9730    8.9590   13.2180 H   0  0  0  0  0  0  0  0  0  0  0  0
  1  3  1  0  0  0  0
  1178  1  0  0  0  0
  2  1  2  0  0  0  0
  3  4  1  0  0  0  0
  4  5  2  0  0  0  0
  4 26  1  0  0  0  0
  5 27  1  0  0  0  0
  6  5  1  0  0  0  0
  7  6  1  0  0  0  0
  7 14  1  0  0  0  0
  8  9  1  0  0  0  0
  8  7  2  0  0  0  0
  9 10  2  0  0  0  0
 10 11  1  0  0  0  0
 10 13  1  0  0  0  0
 11 12  1  0  0  0  0
 12 29  1  0  0  0  0
 12 30  1  0  0  0  0
 13 32  1  0  0  0  0
 14 13  2  0  0  0  0
 14 33  1  0  0  0  0
 15  8  1  0  0  0  0
 15 20  1  0  0  0  0
 16 15  2  0  0  0  0
 17 16  1  0  0  0  0
 17 18  2  0  0  0  0
 18 19  1  0  0  0  0
 19 20  2  0  0  0  0
 19 21  1  0  0  0  0
 20 37  1  0  0  0  0
 21 22  1  0  0  0  0
 21 38  1  1  0  0  0
 22 45  1  0  0  0  0
 23 21  1  0  0  0  0
 23 41  1  0  0  0  0
 24  6  2  0  0  0  0
 25 24  1  0  0  0  0
 25  3  2  0  0  0  0
 28  9  1  0  0  0  0
 31 12  1  0  0  0  0
 34 16  1  0  0  0  0
 35 17  1  0  0  0  0
 36 18  1  0  0  0  0
 39 22  1  0  0  0  0
 40 23  1  0  0  0  0
 42 23  1  0  0  0  0
 43 24  1  0  0  0  0
 44 25  1  0  0  0  0
 45 47  1  0  0  0  0
 46 45  2  0  0  0  0
 47 48  2  0  0  0  0
 47 69  1  0  0  0  0
 48 49  1  0  0  0  0
 49 71  1  0  0  0  0
 49 50  2  0  0  0  0
 50 51  1  0  0  0  0
 51 52  2  0  0  0  0
 51 58  1  0  0  0  0
 52 53  1  0  0  0  0
 53 72  1  0  0  0  0
 53 54  2  0  0  0  0
 54 55  1  0  0  0  0
 55 56  1  0  0  0  0
 56 73  1  0  0  0  0
 57 54  1  0  0  0  0
 57 76  1  0  0  0  0
 58 57  2  0  0  0  0
 59 64  1  0  0  0  0
 59 52  1  0  0  0  0
 60 59  2  0  0  0  0
 61 62  2  0  0  0  0
 61 60  1  0  0  0  0
 62 63  1  0  0  0  0
 63 65  1  0  0  0  0
 63 64  2  0  0  0  0
 64 81  1  0  0  0  0
 65 67  1  0  0  0  0
 65 82  1  1  0  0  0
 66 65  1  0  0  0  0
 67 85  1  0  0  0  0
 67 86  1  0  0  0  0
 68 87  1  0  0  0  0
 68 50  1  0  0  0  0
 69 68  2  0  0  0  0
 70 48  1  0  0  0  0
 74 56  1  0  0  0  0
 75 56  1  0  0  0  0
 77 58  1  0  0  0  0
 78 60  1  0  0  0  0
 79 61  1  0  0  0  0
 80 62  1  0  0  0  0
 83 66  1  0  0  0  0
 84 67  1  0  0  0  0
 88 69  1  0  0  0  0
 89 66  1  0  0  0  0
 89 91  1  0  0  0  0
 90 89  2  0  0  0  0
 91 92  1  0  0  0  0
 92 93  2  0  0  0  0
 92114  1  0  0  0  0
 93115  1  0  0  0  0
 94 93  1  0  0  0  0
 94 95  1  0  0  0  0
 95 96  1  0  0  0  0
 96 97  2  0  0  0  0
 96103  1  0  0  0  0
 97116  1  0  0  0  0
 98 99  1  0  0  0  0
 98 97  1  0  0  0  0
100117  1  0  0  0  0
100 99  1  0  0  0  0
101 98  2  0  0  0  0
102101  1  0  0  0  0
102 95  2  0  0  0  0
103104  2  0  0  0  0
103108  1  0  0  0  0
104105  1  0  0  0  0
105106  2  0  0  0  0
106124  1  0  0  0  0
107106  1  0  0  0  0
107109  1  0  0  0  0
108107  2  0  0  0  0
109126  1  6  0  0  0
109111  1  0  0  0  0
110109  1  0  0  0  0
110127  1  0  0  0  0
111130  1  0  0  0  0
111129  1  0  0  0  0
111128  1  0  0  0  0
112 94  2  0  0  0  0
113 91  2  0  0  0  0
113112  1  0  0  0  0
118100  1  0  0  0  0
119100  1  0  0  0  0
120101  1  0  0  0  0
121102  1  0  0  0  0
122104  1  0  0  0  0
123105  1  0  0  0  0
125108  1  0  0  0  0
131112  1  0  0  0  0
132113  1  0  0  0  0
133110  1  0  0  0  0
134133  2  0  0  0  0
135133  1  0  0  0  0
135136  1  0  0  0  0
136158  1  0  0  0  0
137159  1  0  0  0  0
137136  2  0  0  0  0
138137  1  0  0  0  0
139140  1  0  0  0  0
139138  1  0  0  0  0
140147  1  0  0  0  0
141160  1  0  0  0  0
141140  2  0  0  0  0
142141  1  0  0  0  0
143142  1  0  0  0  0
144162  1  0  0  0  0
144143  1  0  0  0  0
145142  2  0  0  0  0
145146  1  0  0  0  0
146139  2  0  0  0  0
147152  1  0  0  0  0
148147  2  0  0  0  0
148149  1  0  0  0  0
149150  2  0  0  0  0
150151  1  0  0  0  0
150168  1  0  0  0  0
151153  1  0  0  0  0
152169  1  0  0  0  0
152151  2  0  0  0  0
153170  1  1  0  0  0
153154  1  0  0  0  0
154187  1  0  0  0  0
155153  1  0  0  0  0
155173  1  0  0  0  0
156157  1  0  0  0  0
156138  2  0  0  0  0
157135  2  0  0  0  0
161144  1  0  0  0  0
163144  1  0  0  0  0
164145  1  0  0  0  0
165146  1  0  0  0  0
166148  1  0  0  0  0
167149  1  0  0  0  0
171154  1  0  0  0  0
172155  1  0  0  0  0
174155  1  0  0  0  0
175156  1  0  0  0  0
176157  1  0  0  0  0
177179  1  0  0  0  0
177180  1  0  0  0  0
178177  1  0  0  0  0
181177  1  0  0  0  0
182183  1  0  0  0  0
182189  1  0  0  0  0
182190  1  0  0  0  0
183184  1  0  0  0  0
184193  1  0  0  0  0
184194  1  0  0  0  0
184192  1  0  0  0  0
185197  1  0  0  0  0
185183  1  0  0  0  0
186183  1  0  0  0  0
187186  1  0  0  0  0
187188  2  0  0  0  0
191182  1  0  0  0  0
195185  1  0  0  0  0
196185  1  0  0  0  0
M  END
