mop_tetramer.pdb
 OpenBabel10072410523D

197208  0  0  1  0  0  0  0  0999 V2000
   -3.2810   -4.7890    0.0170 C   0  0  0  0  0  0  0  0  0  0  0  0
   -3.8340   -5.2810   -0.9500 O   0  0  0  0  0  0  0  0  0  0  0  0
   -2.8320   -3.3850    0.0720 C   0  0  0  0  0  0  0  0  0  0  0  0
   -1.8440   -2.9220    0.9430 C   0  0  0  0  0  0  0  0  0  0  0  0
   -1.5300   -1.5590    0.9590 C   0  0  0  0  0  0  0  0  0  0  0  0
   -2.2020   -0.6560    0.1110 C   0  0  0  0  0  0  0  0  0  0  0  0
   -1.8900    0.7850    0.0920 C   0  0  0  0  0  0  0  0  0  0  0  0
   -0.6030    1.2880   -0.1840 C   0  0  0  0  0  0  0  0  0  0  0  0
   -0.3560    2.6700   -0.0680 C   0  0  0  0  0  0  0  0  0  0  0  0
   -1.3730    3.5700    0.2220 C   0  0  0  0  0  0  0  0  0  0  0  0
   -0.9690    4.8720    0.2770 O   0  0  0  0  0  0  0  0  0  0  0  0
   -1.9770    5.8430    0.5130 C   0  0  0  0  0  0  0  0  0  0  0  0
   -2.6610    3.0870    0.4100 C   0  0  0  0  0  0  0  0  0  0  0  0
   -2.9120    1.7120    0.3580 C   0  0  0  0  0  0  0  0  0  0  0  0
    0.5120    0.4240   -0.5590 C   0  0  0  0  0  0  0  0  0  0  0  0
    0.4540   -0.4530   -1.6550 C   0  0  0  0  0  0  0  0  0  0  0  0
    1.5050   -1.3120   -1.9520 C   0  0  0  0  0  0  0  0  0  0  0  0
    2.6390   -1.2660   -1.1800 C   0  0  0  0  0  0  0  0  0  0  0  0
    2.7120   -0.3660   -0.0900 C   0  0  0  0  0  0  0  0  0  0  0  0
    1.6450    0.4530    0.2270 C   0  0  0  0  0  0  0  0  0  0  0  0
    3.8970   -0.3600    0.8090 C   0  0  1  0  0  0  0  0  0  0  0  0
    3.8620   -1.6900    1.4030 N   0  0  0  0  0  0  0  0  0  0  0  0
    5.0660   -0.0120   -0.1360 C   0  0  0  0  0  0  0  0  0  0  0  0
   -3.1760   -1.1560   -0.7650 C   0  0  0  0  0  0  0  0  0  0  0  0
   -3.4810   -2.5060   -0.7910 C   0  0  0  0  0  0  0  0  0  0  0  0
   -1.3110   -3.6020    1.5990 H   0  0  0  0  0  0  0  0  0  0  0  0
   -0.7420   -1.2120    1.6280 H   0  0  0  0  0  0  0  0  0  0  0  0
    0.6530    3.0530   -0.2150 H   0  0  0  0  0  0  0  0  0  0  0  0
   -1.4990    6.8260    0.4970 H   0  0  0  0  0  0  0  0  0  0  0  0
   -2.4300    5.7050    1.5000 H   0  0  0  0  0  0  0  0  0  0  0  0
   -2.7330    5.8250   -0.2780 H   0  0  0  0  0  0  0  0  0  0  0  0
   -3.4960    3.7480    0.6120 H   0  0  0  0  0  0  0  0  0  0  0  0
   -3.9240    1.3550    0.5390 H   0  0  0  0  0  0  0  0  0  0  0  0
   -0.4360   -0.4950   -2.2700 H   0  0  0  0  0  0  0  0  0  0  0  0
    1.4390   -2.0260   -2.7640 H   0  0  0  0  0  0  0  0  0  0  0  0
    3.4470   -1.9500   -1.3880 H   0  0  0  0  0  0  0  0  0  0  0  0
    1.7010    1.0740    1.1160 H   0  0  0  0  0  0  0  0  0  0  0  0
    3.8240    0.3880    1.6080 H   0  0  0  0  0  0  0  0  0  0  0  0
    4.0940   -2.3970    0.7530 H   0  0  0  0  0  0  0  0  0  0  0  0
    5.3220   -0.8330   -0.8130 H   0  0  0  0  0  0  0  0  0  0  0  0
    5.9860    0.2800    0.3480 H   0  0  0  0  0  0  0  0  0  0  0  0
    4.8130    0.8660   -0.7420 H   0  0  0  0  0  0  0  0  0  0  0  0
   -3.6880   -0.4950   -1.4600 H   0  0  0  0  0  0  0  0  0  0  0  0
   -4.2300   -2.8750   -1.4900 H   0  0  0  0  0  0  0  0  0  0  0  0
    2.9300   -2.0300    2.3840 C   0  0  0  0  0  0  0  0  0  0  0  0
    2.5110   -1.2280    3.2350 O   0  0  0  0  0  0  0  0  0  0  0  0
    2.3750   -3.4300    2.3140 C   0  0  0  0  0  0  0  0  0  0  0  0
    2.8910   -4.3950    1.4330 C   0  0  0  0  0  0  0  0  0  0  0  0
    2.2880   -5.6480    1.2740 C   0  0  0  0  0  0  0  0  0  0  0  0
    1.1640   -6.0090    2.0270 C   0  0  0  0  0  0  0  0  0  0  0  0
    0.5420   -7.3460    1.8680 C   0  0  0  0  0  0  0  0  0  0  0  0
    1.1590   -8.5660    2.1700 C   0  0  0  0  0  0  0  0  0  0  0  0
    0.5260   -9.8170    1.9270 C   0  0  0  0  0  0  0  0  0  0  0  0
   -0.7470   -9.8790    1.4000 C   0  0  0  0  0  0  0  0  0  0  0  0
   -1.3000  -11.1110    1.2100 O   0  0  0  0  0  0  0  0  0  0  0  0
   -2.6710  -11.1370    0.8060 C   0  0  0  0  0  0  0  0  0  0  0  0
   -1.3430   -8.6790    1.0810 C   0  0  0  0  0  0  0  0  0  0  0  0
   -0.7140   -7.4440    1.3070 C   0  0  0  0  0  0  0  0  0  0  0  0
    2.5190   -8.5770    2.6380 C   0  0  0  0  0  0  0  0  0  0  0  0
    2.9180   -7.9170    3.8110 C   0  0  0  0  0  0  0  0  0  0  0  0
    4.2530   -7.8640    4.1820 C   0  0  0  0  0  0  0  0  0  0  0  0
    5.1630   -8.5200    3.3930 C   0  0  0  0  0  0  0  0  0  0  0  0
    4.7480   -9.1890    2.2230 C   0  0  0  0  0  0  0  0  0  0  0  0
    3.4390   -9.1830    1.8150 C   0  0  0  0  0  0  0  0  0  0  0  0
    5.7210   -9.8590    1.3270 C   0  0  1  0  0  0  0  0  0  0  0  0
    6.5280   -8.7520    0.8730 N   0  0  0  0  0  0  0  0  0  0  0  0
    6.3210  -10.9340    2.2520 C   0  0  0  0  0  0  0  0  0  0  0  0
    0.6530   -5.0540    2.9240 C   0  0  0  0  0  0  0  0  0  0  0  0
    1.2490   -3.7810    3.0660 C   0  0  0  0  0  0  0  0  0  0  0  0
    3.7670   -4.2170    0.8320 H   0  0  0  0  0  0  0  0  0  0  0  0
    2.7140   -6.3430    0.5520 H   0  0  0  0  0  0  0  0  0  0  0  0
    1.0570  -10.7460    2.1340 H   0  0  0  0  0  0  0  0  0  0  0  0
   -2.9680  -12.1810    0.6670 H   0  0  0  0  0  0  0  0  0  0  0  0
   -2.8230  -10.6300   -0.1530 H   0  0  0  0  0  0  0  0  0  0  0  0
   -3.3170  -10.7050    1.5800 H   0  0  0  0  0  0  0  0  0  0  0  0
   -2.3200   -8.6890    0.6300 H   0  0  0  0  0  0  0  0  0  0  0  0
   -1.1890   -6.5200    1.0220 H   0  0  0  0  0  0  0  0  0  0  0  0
    2.1850   -7.3920    4.4060 H   0  0  0  0  0  0  0  0  0  0  0  0
    4.5680   -7.3100    5.0550 H   0  0  0  0  0  0  0  0  0  0  0  0
    6.2160   -8.4920    3.6720 H   0  0  0  0  0  0  0  0  0  0  0  0
    3.1610   -9.6060    0.8500 H   0  0  0  0  0  0  0  0  0  0  0  0
    5.2560  -10.3320    0.4480 H   0  0  0  0  0  0  0  0  0  0  0  0
    7.1010   -8.3870    1.6210 H   0  0  0  0  0  0  0  0  0  0  0  0
    6.9740  -10.5100    3.0210 H   0  0  0  0  0  0  0  0  0  0  0  0
    6.8830  -11.7150    1.7660 H   0  0  0  0  0  0  0  0  0  0  0  0
    5.5170  -11.4890    2.7550 H   0  0  0  0  0  0  0  0  0  0  0  0
   -0.2340   -5.2860    3.5100 H   0  0  0  0  0  0  0  0  0  0  0  0
    0.8040   -3.0590    3.7480 H   0  0  0  0  0  0  0  0  0  0  0  0
    6.0650   -7.8040   -0.0390 C   0  0  0  0  0  0  0  0  0  0  0  0
    5.2550   -8.0760   -0.9440 O   0  0  0  0  0  0  0  0  0  0  0  0
    6.5260   -6.3940    0.1810 C   0  0  0  0  0  0  0  0  0  0  0  0
    7.4730   -6.0750    1.1690 C   0  0  0  0  0  0  0  0  0  0  0  0
    7.7770   -4.7620    1.5030 C   0  0  0  0  0  0  0  0  0  0  0  0
    7.1970   -3.6900    0.8320 C   0  0  0  0  0  0  0  0  0  0  0  0
    7.5450   -2.3190    1.2640 C   0  0  0  0  0  0  0  0  0  0  0  0
    8.7980   -1.7100    1.0840 C   0  0  0  0  0  0  0  0  0  0  0  0
    8.9990   -0.3680    1.5040 C   0  0  0  0  0  0  0  0  0  0  0  0
    7.9850    0.3820    2.0960 C   0  0  0  0  0  0  0  0  0  0  0  0
    8.2530    1.7040    2.3000 O   0  0  0  0  0  0  0  0  0  0  0  0
    7.1490    2.5670    2.5700 C   0  0  0  0  0  0  0  0  0  0  0  0
    6.8180   -0.2760    2.4320 C   0  0  0  0  0  0  0  0  0  0  0  0
    6.6400   -1.6160    2.0510 C   0  0  0  0  0  0  0  0  0  0  0  0
    9.9440   -2.4850    0.6170 C   0  0  0  0  0  0  0  0  0  0  0  0
    9.9600   -3.1330   -0.6230 C   0  0  0  0  0  0  0  0  0  0  0  0
   11.0210   -3.9620   -0.9720 C   0  0  0  0  0  0  0  0  0  0  0  0
   12.0900   -4.1230   -0.0930 C   0  0  0  0  0  0  0  0  0  0  0  0
   12.0950   -3.4780    1.1550 C   0  0  0  0  0  0  0  0  0  0  0  0
   11.0080   -2.6830    1.5040 C   0  0  0  0  0  0  0  0  0  0  0  0
   13.1840   -3.6960    2.1880 C   0  0  1  0  0  0  0  0  0  0  0  0
   13.1770   -5.1000    2.5600 N   0  0  0  0  0  0  0  0  0  0  0  0
   14.5230   -3.2290    1.6160 C   0  0  0  0  0  0  0  0  0  0  0  0
    6.2900   -3.9890   -0.2080 C   0  0  0  0  0  0  0  0  0  0  0  0
    5.9550   -5.3260   -0.5240 C   0  0  0  0  0  0  0  0  0  0  0  0
    7.9980   -6.8250    1.7320 H   0  0  0  0  0  0  0  0  0  0  0  0
    8.4870   -4.5790    2.3080 H   0  0  0  0  0  0  0  0  0  0  0  0
    9.9730    0.0970    1.3660 H   0  0  0  0  0  0  0  0  0  0  0  0
    7.5520    3.5680    2.7560 H   0  0  0  0  0  0  0  0  0  0  0  0
    6.6050    2.2660    3.4700 H   0  0  0  0  0  0  0  0  0  0  0  0
    6.4740    2.6390    1.7090 H   0  0  0  0  0  0  0  0  0  0  0  0
    5.9760    0.2320    2.8920 H   0  0  0  0  0  0  0  0  0  0  0  0
    5.7420   -2.1310    2.3550 H   0  0  0  0  0  0  0  0  0  0  0  0
    9.1160   -3.0350   -1.3010 H   0  0  0  0  0  0  0  0  0  0  0  0
   10.9990   -4.4950   -1.9180 H   0  0  0  0  0  0  0  0  0  0  0  0
   12.9020   -4.7830   -0.3810 H   0  0  0  0  0  0  0  0  0  0  0  0
   10.9570   -2.2570    2.5080 H   0  0  0  0  0  0  0  0  0  0  0  0
   12.9780   -3.1110    3.0930 H   0  0  0  0  0  0  0  0  0  0  0  0
   13.6070   -5.6840    1.8680 H   0  0  0  0  0  0  0  0  0  0  0  0
   14.8180   -3.8060    0.7320 H   0  0  0  0  0  0  0  0  0  0  0  0
   15.3240   -3.3230    2.3540 H   0  0  0  0  0  0  0  0  0  0  0  0
   14.4600   -2.1760    1.3120 H   0  0  0  0  0  0  0  0  0  0  0  0
    5.8150   -3.1890   -0.7730 H   0  0  0  0  0  0  0  0  0  0  0  0
    5.2130   -5.5280   -1.3020 H   0  0  0  0  0  0  0  0  0  0  0  0
   12.0540   -5.5830    3.2390 C   0  0  0  0  0  0  0  0  0  0  0  0
   11.4980   -4.9500    4.1320 O   0  0  0  0  0  0  0  0  0  0  0  0
   11.4650   -6.8820    2.7670 C   0  0  0  0  0  0  0  0  0  0  0  0
   12.0130   -7.5790    1.6960 C   0  0  0  0  0  0  0  0  0  0  0  0
   11.4570   -8.7640    1.2140 C   0  0  0  0  0  0  0  0  0  0  0  0
   10.3140   -9.3100    1.7790 C   0  0  0  0  0  0  0  0  0  0  0  0
    9.7730  -10.5680    1.2000 C   0  0  0  0  0  0  0  0  0  0  0  0
   10.3570  -11.8400    1.3240 C   0  0  0  0  0  0  0  0  0  0  0  0
    9.7210  -12.9740    0.7440 C   0  0  0  0  0  0  0  0  0  0  0  0
    8.5210  -12.8770    0.0420 C   0  0  0  0  0  0  0  0  0  0  0  0
    7.9370  -14.0540   -0.3290 O   0  0  0  0  0  0  0  0  0  0  0  0
    6.5700  -14.0190   -0.7380 C   0  0  0  0  0  0  0  0  0  0  0  0
    8.0450  -11.6090   -0.2230 C   0  0  0  0  0  0  0  0  0  0  0  0
    8.7010  -10.4890    0.3180 C   0  0  0  0  0  0  0  0  0  0  0  0
   11.6890  -11.9980    1.9030 C   0  0  0  0  0  0  0  0  0  0  0  0
   11.9930  -11.5980    3.2080 C   0  0  0  0  0  0  0  0  0  0  0  0
   13.3050  -11.6370    3.6720 C   0  0  0  0  0  0  0  0  0  0  0  0
   14.3240  -12.0920    2.8410 C   0  0  0  0  0  0  0  0  0  0  0  0
   14.0400  -12.4960    1.5300 C   0  0  0  0  0  0  0  0  0  0  0  0
   12.7220  -12.4440    1.0750 C   0  0  0  0  0  0  0  0  0  0  0  0
   15.1230  -12.8850    0.5500 C   0  0  1  0  0  0  0  0  0  0  0  0
   15.9790  -11.7400    0.2760 N   0  0  0  0  0  0  0  0  0  0  0  0
   15.8360  -14.1410    1.0470 C   0  0  0  0  0  0  0  0  0  0  0  0
    9.7230   -8.5960    2.8420 C   0  0  0  0  0  0  0  0  0  0  0  0
   10.2870   -7.3890    3.3260 C   0  0  0  0  0  0  0  0  0  0  0  0
   12.8750   -7.2090    1.1840 H   0  0  0  0  0  0  0  0  0  0  0  0
   11.9340   -9.2720    0.3750 H   0  0  0  0  0  0  0  0  0  0  0  0
   10.1820  -13.9550    0.8420 H   0  0  0  0  0  0  0  0  0  0  0  0
    6.2970  -15.0280   -1.0640 H   0  0  0  0  0  0  0  0  0  0  0  0
    6.4100  -13.3520   -1.5910 H   0  0  0  0  0  0  0  0  0  0  0  0
    5.9080  -13.7530    0.0960 H   0  0  0  0  0  0  0  0  0  0  0  0
    7.1110  -11.4410   -0.7510 H   0  0  0  0  0  0  0  0  0  0  0  0
    8.3450   -9.5040    0.0650 H   0  0  0  0  0  0  0  0  0  0  0  0
   11.2120  -11.2020    3.8510 H   0  0  0  0  0  0  0  0  0  0  0  0
   13.5320  -11.2820    4.6730 H   0  0  0  0  0  0  0  0  0  0  0  0
   15.3450  -12.0990    3.2090 H   0  0  0  0  0  0  0  0  0  0  0  0
   12.5070  -12.6760    0.0290 H   0  0  0  0  0  0  0  0  0  0  0  0
   14.6650  -13.1550   -0.4130 H   0  0  0  0  0  0  0  0  0  0  0  0
   16.7270  -11.5050    0.9130 H   0  0  0  0  0  0  0  0  0  0  0  0
   16.3560  -13.9800    1.9960 H   0  0  0  0  0  0  0  0  0  0  0  0
   16.5650  -14.5040    0.3170 H   0  0  0  0  0  0  0  0  0  0  0  0
   15.1040  -14.9450    1.2100 H   0  0  0  0  0  0  0  0  0  0  0  0
    8.8080   -8.9540    3.3080 H   0  0  0  0  0  0  0  0  0  0  0  0
    9.7900   -6.8320    4.1200 H   0  0  0  0  0  0  0  0  0  0  0  0
   -3.7240   -6.6420    1.3080 C   0  0  0  0  0  0  0  0  0  0  0  0
   -3.1210   -5.3540    1.2300 O   0  0  0  0  0  0  0  0  0  0  0  0
   -4.7840   -6.5410    1.5180 H   0  0  0  0  0  0  0  0  0  0  0  0
   -3.2610   -7.1870    2.1360 H   0  0  0  0  0  0  0  0  0  0  0  0
   -3.5830   -7.2000    0.3750 H   0  0  0  0  0  0  0  0  0  0  0  0
   17.0370   -7.4350   -1.2060 C   0  0  0  0  0  0  0  0  0  0  0  0
   15.8370   -8.3850   -1.1100 C   0  0  0  0  0  0  0  0  0  0  0  0
   14.8090   -7.7280   -0.2030 C   0  0  0  0  0  0  0  0  0  0  0  0
   15.2580   -8.5690   -2.5230 C   0  0  0  0  0  0  0  0  0  0  0  0
   16.3030   -9.6260   -0.4950 O   0  0  0  0  0  0  0  0  0  0  0  0
   15.4430  -10.6800   -0.4230 C   0  0  0  0  0  0  0  0  0  0  0  0
   14.3150  -10.6860   -0.8960 O   0  0  0  0  0  0  0  0  0  0  0  0
   16.7430   -6.4680   -1.6330 H   0  0  0  0  0  0  0  0  0  0  0  0
   17.4750   -7.2500   -0.2190 H   0  0  0  0  0  0  0  0  0  0  0  0
   17.8240   -7.8630   -1.8350 H   0  0  0  0  0  0  0  0  0  0  0  0
   15.1730   -7.6480    0.8280 H   0  0  0  0  0  0  0  0  0  0  0  0
   13.9100   -8.3430   -0.1840 H   0  0  0  0  0  0  0  0  0  0  0  0
   14.5220   -6.7300   -0.5520 H   0  0  0  0  0  0  0  0  0  0  0  0
   15.9590   -9.1080   -3.1660 H   0  0  0  0  0  0  0  0  0  0  0  0
   14.3200   -9.1330   -2.5280 H   0  0  0  0  0  0  0  0  0  0  0  0
   15.0240   -7.6010   -2.9820 H   0  0  0  0  0  0  0  0  0  0  0  0
  1  3  1  0  0  0  0
  1178  1  0  0  0  0
  2  1  2  0  0  0  0
  3  4  1  0  0  0  0
  4  5  2  0  0  0  0
  4 26  1  0  0  0  0
  5 27  1  0  0  0  0
  6  5  1  0  0  0  0
  7  6  1  0  0  0  0
  7 14  1  0  0  0  0
  8  9  1  0  0  0  0
  8  7  2  0  0  0  0
  9 10  2  0  0  0  0
 10 11  1  0  0  0  0
 10 13  1  0  0  0  0
 11 12  1  0  0  0  0
 12 30  1  0  0  0  0
 13 32  1  0  0  0  0
 14 13  2  0  0  0  0
 14 33  1  0  0  0  0
 15  8  1  0  0  0  0
 15 20  1  0  0  0  0
 16 15  2  0  0  0  0
 17 16  1  0  0  0  0
 17 18  2  0  0  0  0
 18 19  1  0  0  0  0
 19 20  2  0  0  0  0
 19 21  1  0  0  0  0
 20 37  1  0  0  0  0
 21 22  1  0  0  0  0
 21 38  1  1  0  0  0
 22 45  1  0  0  0  0
 23 41  1  0  0  0  0
 23 21  1  0  0  0  0
 24  6  2  0  0  0  0
 25 24  1  0  0  0  0
 25  3  2  0  0  0  0
 28  9  1  0  0  0  0
 29 12  1  0  0  0  0
 31 12  1  0  0  0  0
 34 16  1  0  0  0  0
 35 17  1  0  0  0  0
 36 18  1  0  0  0  0
 39 22  1  0  0  0  0
 40 23  1  0  0  0  0
 42 23  1  0  0  0  0
 43 24  1  0  0  0  0
 44 25  1  0  0  0  0
 45 46  2  0  0  0  0
 47 45  1  0  0  0  0
 47 69  1  0  0  0  0
 48 47  2  0  0  0  0
 49 48  1  0  0  0  0
 49 50  2  0  0  0  0
 50 68  1  0  0  0  0
 51 50  1  0  0  0  0
 51 52  1  0  0  0  0
 52 59  1  0  0  0  0
 53 72  1  0  0  0  0
 53 52  2  0  0  0  0
 54 53  1  0  0  0  0
 55 54  1  0  0  0  0
 56 55  1  0  0  0  0
 56 75  1  0  0  0  0
 57 58  1  0  0  0  0
 57 54  2  0  0  0  0
 58 51  2  0  0  0  0
 59 60  1  0  0  0  0
 60 61  2  0  0  0  0
 60 78  1  0  0  0  0
 61 79  1  0  0  0  0
 62 80  1  0  0  0  0
 62 61  1  0  0  0  0
 63 62  2  0  0  0  0
 64 63  1  0  0  0  0
 64 59  2  0  0  0  0
 65 82  1  6  0  0  0
 65 63  1  0  0  0  0
 65 67  1  0  0  0  0
 66 65  1  0  0  0  0
 66 83  1  0  0  0  0
 67 86  1  0  0  0  0
 67 84  1  0  0  0  0
 68 69  2  0  0  0  0
 68 87  1  0  0  0  0
 69 88  1  0  0  0  0
 70 48  1  0  0  0  0
 71 49  1  0  0  0  0
 73 56  1  0  0  0  0
 74 56  1  0  0  0  0
 76 57  1  0  0  0  0
 77 58  1  0  0  0  0
 81 64  1  0  0  0  0
 85 67  1  0  0  0  0
 89 91  1  0  0  0  0
 89 66  1  0  0  0  0
 90 89  2  0  0  0  0
 91 92  1  0  0  0  0
 92 93  2  0  0  0  0
 92114  1  0  0  0  0
 93115  1  0  0  0  0
 94 95  1  0  0  0  0
 94 93  1  0  0  0  0
 95102  1  0  0  0  0
 96 95  2  0  0  0  0
 96 97  1  0  0  0  0
 97 98  2  0  0  0  0
 98 99  1  0  0  0  0
 98101  1  0  0  0  0
 99100  1  0  0  0  0
100117  1  0  0  0  0
100118  1  0  0  0  0
101120  1  0  0  0  0
102121  1  0  0  0  0
102101  2  0  0  0  0
103 96  1  0  0  0  0
103108  1  0  0  0  0
104103  2  0  0  0  0
105104  1  0  0  0  0
105106  2  0  0  0  0
106107  1  0  0  0  0
107108  2  0  0  0  0
107109  1  0  0  0  0
108125  1  0  0  0  0
109110  1  0  0  0  0
109126  1  1  0  0  0
110133  1  0  0  0  0
111109  1  0  0  0  0
111129  1  0  0  0  0
112 94  2  0  0  0  0
113112  1  0  0  0  0
113 91  2  0  0  0  0
116 97  1  0  0  0  0
119100  1  0  0  0  0
122104  1  0  0  0  0
123105  1  0  0  0  0
124106  1  0  0  0  0
127110  1  0  0  0  0
128111  1  0  0  0  0
130111  1  0  0  0  0
131112  1  0  0  0  0
132113  1  0  0  0  0
133134  2  0  0  0  0
135133  1  0  0  0  0
135157  1  0  0  0  0
136135  2  0  0  0  0
137136  1  0  0  0  0
137138  2  0  0  0  0
138156  1  0  0  0  0
139140  1  0  0  0  0
139138  1  0  0  0  0
140147  1  0  0  0  0
141160  1  0  0  0  0
141140  2  0  0  0  0
142141  1  0  0  0  0
143142  1  0  0  0  0
144143  1  0  0  0  0
144163  1  0  0  0  0
145142  2  0  0  0  0
145146  1  0  0  0  0
146139  2  0  0  0  0
147148  1  0  0  0  0
148149  2  0  0  0  0
148166  1  0  0  0  0
149167  1  0  0  0  0
150168  1  0  0  0  0
150149  1  0  0  0  0
151150  2  0  0  0  0
152151  1  0  0  0  0
152147  2  0  0  0  0
153170  1  6  0  0  0
153155  1  0  0  0  0
153151  1  0  0  0  0
154153  1  0  0  0  0
154171  1  0  0  0  0
155174  1  0  0  0  0
155172  1  0  0  0  0
156175  1  0  0  0  0
156157  2  0  0  0  0
157176  1  0  0  0  0
158136  1  0  0  0  0
159137  1  0  0  0  0
161144  1  0  0  0  0
162144  1  0  0  0  0
164145  1  0  0  0  0
165146  1  0  0  0  0
169152  1  0  0  0  0
173155  1  0  0  0  0
177179  1  0  0  0  0
177180  1  0  0  0  0
178177  1  0  0  0  0
181177  1  0  0  0  0
182183  1  0  0  0  0
182190  1  0  0  0  0
183186  1  0  0  0  0
183184  1  0  0  0  0
184193  1  0  0  0  0
184192  1  0  0  0  0
185183  1  0  0  0  0
186187  1  0  0  0  0
187154  1  0  0  0  0
188187  2  0  0  0  0
189182  1  0  0  0  0
191182  1  0  0  0  0
194184  1  0  0  0  0
195185  1  0  0  0  0
196185  1  0  0  0  0
197185  1  0  0  0  0
M  END
