mop_octamer.pdb
 OpenBabel03122610423D

373396  0  0  1  0  0  0  0  0999 V2000
   -3.0020   -4.9950   -0.7700 C   0  0  0  0  0  0  0  0  0  0  0  0
   -3.7820   -5.3680   -1.6310 O   0  0  0  0  0  0  0  0  0  0  0  0
   -2.6590   -3.5670   -0.5330 C   0  0  0  0  0  0  0  0  0  0  0  0
   -1.7000   -3.1750    0.4070 C   0  0  0  0  0  0  0  0  0  0  0  0
   -1.4660   -1.8170    0.6450 C   0  0  0  0  0  0  0  0  0  0  0  0
   -2.1630   -0.8250   -0.0660 C   0  0  0  0  0  0  0  0  0  0  0  0
   -1.9010    0.6060    0.1770 C   0  0  0  0  0  0  0  0  0  0  0  0
   -0.6380    1.2020   -0.0530 C   0  0  0  0  0  0  0  0  0  0  0  0
   -0.4650    2.5700    0.2530 C   0  0  0  0  0  0  0  0  0  0  0  0
   -1.4990    3.3480    0.7760 C   0  0  0  0  0  0  0  0  0  0  0  0
   -1.1600    4.6470    1.0360 O   0  0  0  0  0  0  0  0  0  0  0  0
   -2.1470    5.4590    1.6600 C   0  0  0  0  0  0  0  0  0  0  0  0
   -2.7420    2.7650    0.9840 C   0  0  0  0  0  0  0  0  0  0  0  0
   -2.9380    1.4110    0.6880 C   0  0  0  0  0  0  0  0  0  0  0  0
    0.5180    0.4480   -0.5730 C   0  0  0  0  0  0  0  0  0  0  0  0
    0.4840   -0.1910   -1.8220 C   0  0  0  0  0  0  0  0  0  0  0  0
    1.5810   -0.9200   -2.2810 C   0  0  0  0  0  0  0  0  0  0  0  0
    2.7430   -0.9820   -1.5160 C   0  0  0  0  0  0  0  0  0  0  0  0
    2.8270   -0.3130   -0.2850 C   0  0  0  0  0  0  0  0  0  0  0  0
    1.6930    0.3590    0.1900 C   0  0  0  0  0  0  0  0  0  0  0  0
    4.1370   -0.2970    0.4830 C   0  0  2  0  0  0  0  0  0  0  0  0
    4.1050   -1.2420    1.5900 N   0  0  0  0  0  0  0  0  0  0  0  0
    4.5230    1.1260    0.9080 C   0  0  0  0  0  0  0  0  0  0  0  0
   -3.1080   -1.2320   -1.0210 C   0  0  0  0  0  0  0  0  0  0  0  0
   -3.3570   -2.5890   -1.2510 C   0  0  0  0  0  0  0  0  0  0  0  0
   -1.1290   -3.9100    0.9700 H   0  0  0  0  0  0  0  0  0  0  0  0
   -0.7240   -1.5350    1.3890 H   0  0  0  0  0  0  0  0  0  0  0  0
    0.5030    3.0410    0.0830 H   0  0  0  0  0  0  0  0  0  0  0  0
   -1.7080    6.4470    1.8290 H   0  0  0  0  0  0  0  0  0  0  0  0
   -2.4360    5.0520    2.6350 H   0  0  0  0  0  0  0  0  0  0  0  0
   -3.0180    5.5880    1.0100 H   0  0  0  0  0  0  0  0  0  0  0  0
   -3.5800    3.3270    1.3810 H   0  0  0  0  0  0  0  0  0  0  0  0
   -3.9150    0.9710    0.8820 H   0  0  0  0  0  0  0  0  0  0  0  0
   -0.4070   -0.1320   -2.4430 H   0  0  0  0  0  0  0  0  0  0  0  0
    1.5320   -1.4260   -3.2410 H   0  0  0  0  0  0  0  0  0  0  0  0
    3.5940   -1.5410   -1.9000 H   0  0  0  0  0  0  0  0  0  0  0  0
    1.7200    0.8410    1.1650 H   0  0  0  0  0  0  0  0  0  0  0  0
    4.8800   -0.6660   -0.2220 H   0  0  0  0  0  0  0  0  0  0  0  0
    3.1930   -1.6140    1.8300 H   0  0  0  0  0  0  0  0  0  0  0  0
    3.7610    1.6010    1.5330 H   0  0  0  0  0  0  0  0  0  0  0  0
    4.6710    1.7570    0.0230 H   0  0  0  0  0  0  0  0  0  0  0  0
    5.4470    1.1580    1.4900 H   0  0  0  0  0  0  0  0  0  0  0  0
   -3.6540   -0.4900   -1.6000 H   0  0  0  0  0  0  0  0  0  0  0  0
   -4.1060   -2.8780   -1.9860 H   0  0  0  0  0  0  0  0  0  0  0  0
    5.0860   -1.7790    2.3880 C   0  0  0  0  0  0  0  0  0  0  0  0
    4.7360   -2.6020    3.2380 O   0  0  0  0  0  0  0  0  0  0  0  0
    6.5270   -1.3800    2.3320 C   0  0  0  0  0  0  0  0  0  0  0  0
    7.1520   -0.8000    1.2300 C   0  0  0  0  0  0  0  0  0  0  0  0
    8.4500   -0.3000    1.3190 C   0  0  0  0  0  0  0  0  0  0  0  0
    9.1960   -0.4440    2.4920 C   0  0  0  0  0  0  0  0  0  0  0  0
   10.5450    0.1260    2.5480 C   0  0  0  0  0  0  0  0  0  0  0  0
   10.7620    1.5280    2.6680 C   0  0  0  0  0  0  0  0  0  0  0  0
   12.0940    1.9940    2.5510 C   0  0  0  0  0  0  0  0  0  0  0  0
   13.1670    1.1410    2.3070 C   0  0  0  0  0  0  0  0  0  0  0  0
   14.3750    1.7600    2.1640 O   0  0  0  0  0  0  0  0  0  0  0  0
   15.4710    0.9400    1.7800 C   0  0  0  0  0  0  0  0  0  0  0  0
   12.9350   -0.2370    2.2280 C   0  0  0  0  0  0  0  0  0  0  0  0
   11.6410   -0.7280    2.3510 C   0  0  0  0  0  0  0  0  0  0  0  0
    9.6760    2.5090    2.8600 C   0  0  0  0  0  0  0  0  0  0  0  0
    8.8050    2.4470    3.9600 C   0  0  0  0  0  0  0  0  0  0  0  0
    7.7920    3.3950    4.1280 C   0  0  0  0  0  0  0  0  0  0  0  0
    7.6570    4.4480    3.2260 C   0  0  0  0  0  0  0  0  0  0  0  0
    8.5370    4.5660    2.1410 C   0  0  0  0  0  0  0  0  0  0  0  0
    9.5070    3.5640    1.9500 C   0  0  0  0  0  0  0  0  0  0  0  0
    8.4510    5.7630    1.2100 C   0  0  2  0  0  0  0  0  0  0  0  0
    7.9020    5.3500   -0.0770 N   0  0  0  0  0  0  0  0  0  0  0  0
    9.8300    6.4330    1.0910 C   0  0  0  0  0  0  0  0  0  0  0  0
    8.6270   -1.1450    3.5600 C   0  0  0  0  0  0  0  0  0  0  0  0
    7.3010   -1.5930    3.4860 C   0  0  0  0  0  0  0  0  0  0  0  0
    6.6750   -0.6860    0.2720 H   0  0  0  0  0  0  0  0  0  0  0  0
    8.8740    0.2230    0.4640 H   0  0  0  0  0  0  0  0  0  0  0  0
   12.2920    3.0650    2.6280 H   0  0  0  0  0  0  0  0  0  0  0  0
   16.3510    1.5830    1.6790 H   0  0  0  0  0  0  0  0  0  0  0  0
   15.2900    0.4660    0.8090 H   0  0  0  0  0  0  0  0  0  0  0  0
   15.6890    0.1940    2.5510 H   0  0  0  0  0  0  0  0  0  0  0  0
   13.7380   -0.9380    2.0380 H   0  0  0  0  0  0  0  0  0  0  0  0
   11.4780   -1.8050    2.2340 H   0  0  0  0  0  0  0  0  0  0  0  0
    8.9110    1.6550    4.6980 H   0  0  0  0  0  0  0  0  0  0  0  0
    7.1160    3.3170    4.9780 H   0  0  0  0  0  0  0  0  0  0  0  0
    6.8710    5.1830    3.3860 H   0  0  0  0  0  0  0  0  0  0  0  0
   10.1620    3.6130    1.0840 H   0  0  0  0  0  0  0  0  0  0  0  0
    7.7450    6.4710    1.6510 H   0  0  0  0  0  0  0  0  0  0  0  0
    7.7960    4.3460   -0.1730 H   0  0  0  0  0  0  0  0  0  0  0  0
   10.6070    5.7420    0.7430 H   0  0  0  0  0  0  0  0  0  0  0  0
   10.1440    6.8140    2.0690 H   0  0  0  0  0  0  0  0  0  0  0  0
    9.8450    7.2670    0.3850 H   0  0  0  0  0  0  0  0  0  0  0  0
    9.1990   -1.3140    4.4700 H   0  0  0  0  0  0  0  0  0  0  0  0
    6.8670   -2.0950    4.3500 H   0  0  0  0  0  0  0  0  0  0  0  0
    6.9650    5.9730   -0.8710 C   0  0  0  0  0  0  0  0  0  0  0  0
    6.1770    5.2470   -1.4820 O   0  0  0  0  0  0  0  0  0  0  0  0
    6.9470    7.4440   -1.1400 C   0  0  0  0  0  0  0  0  0  0  0  0
    7.5310    8.4170   -0.3340 C   0  0  0  0  0  0  0  0  0  0  0  0
    7.6180    9.7430   -0.7580 C   0  0  0  0  0  0  0  0  0  0  0  0
    7.0800   10.1480   -1.9840 C   0  0  0  0  0  0  0  0  0  0  0  0
    7.2210   11.5490   -2.4020 C   0  0  0  0  0  0  0  0  0  0  0  0
    8.4750   12.1270   -2.7160 C   0  0  0  0  0  0  0  0  0  0  0  0
    8.5320   13.5190   -2.9410 C   0  0  0  0  0  0  0  0  0  0  0  0
    7.4000   14.3310   -2.8550 C   0  0  0  0  0  0  0  0  0  0  0  0
    7.6350   15.6640   -3.0430 O   0  0  0  0  0  0  0  0  0  0  0  0
    6.5460   16.5440   -2.7980 C   0  0  0  0  0  0  0  0  0  0  0  0
    6.1670   13.7480   -2.5870 C   0  0  0  0  0  0  0  0  0  0  0  0
    6.0790   12.3710   -2.3690 C   0  0  0  0  0  0  0  0  0  0  0  0
    9.7350   11.3530   -2.7760 C   0  0  0  0  0  0  0  0  0  0  0  0
    9.9070   10.2670   -3.6450 C   0  0  0  0  0  0  0  0  0  0  0  0
   11.1200    9.5740   -3.7010 C   0  0  0  0  0  0  0  0  0  0  0  0
   12.1980    9.9820   -2.9170 C   0  0  0  0  0  0  0  0  0  0  0  0
   12.0720   11.0870   -2.0690 C   0  0  0  0  0  0  0  0  0  0  0  0
   10.8260   11.7300   -1.9760 C   0  0  0  0  0  0  0  0  0  0  0  0
   13.2740   11.6120   -1.2980 C   0  0  2  0  0  0  0  0  0  0  0  0
   13.0820   11.3920    0.1300 N   0  0  0  0  0  0  0  0  0  0  0  0
   13.5040   13.0890   -1.6480 C   0  0  0  0  0  0  0  0  0  0  0  0
    6.4040    9.1990   -2.7570 C   0  0  0  0  0  0  0  0  0  0  0  0
    6.3430    7.8630   -2.3400 C   0  0  0  0  0  0  0  0  0  0  0  0
    7.9470    8.2060    0.6370 H   0  0  0  0  0  0  0  0  0  0  0  0
    8.1300   10.4650   -0.1240 H   0  0  0  0  0  0  0  0  0  0  0  0
    9.4880   13.9900   -3.1690 H   0  0  0  0  0  0  0  0  0  0  0  0
    6.9110   17.5690   -2.9140 H   0  0  0  0  0  0  0  0  0  0  0  0
    6.1710   16.4390   -1.7740 H   0  0  0  0  0  0  0  0  0  0  0  0
    5.7470   16.3880   -3.5290 H   0  0  0  0  0  0  0  0  0  0  0  0
    5.2570   14.3330   -2.5210 H   0  0  0  0  0  0  0  0  0  0  0  0
    5.1110   11.9400   -2.1220 H   0  0  0  0  0  0  0  0  0  0  0  0
    9.0940    9.9530   -4.2950 H   0  0  0  0  0  0  0  0  0  0  0  0
   11.2300    8.7290   -4.3760 H   0  0  0  0  0  0  0  0  0  0  0  0
   13.1400    9.4430   -2.9920 H   0  0  0  0  0  0  0  0  0  0  0  0
   10.7080   12.5660   -1.2870 H   0  0  0  0  0  0  0  0  0  0  0  0
   14.1390   11.0200   -1.6140 H   0  0  0  0  0  0  0  0  0  0  0  0
   12.1460   11.0870    0.3660 H   0  0  0  0  0  0  0  0  0  0  0  0
   12.6470   13.7180   -1.3870 H   0  0  0  0  0  0  0  0  0  0  0  0
   13.6810   13.2000   -2.7250 H   0  0  0  0  0  0  0  0  0  0  0  0
   14.3600   13.5200   -1.1240 H   0  0  0  0  0  0  0  0  0  0  0  0
    5.9480    9.4840   -3.7030 H   0  0  0  0  0  0  0  0  0  0  0  0
    5.8400    7.1380   -2.9800 H   0  0  0  0  0  0  0  0  0  0  0  0
   13.9680   10.8190    1.0130 C   0  0  0  0  0  0  0  0  0  0  0  0
   13.5240   10.0080    1.8270 O   0  0  0  0  0  0  0  0  0  0  0  0
   15.3810   11.2820    1.1410 C   0  0  0  0  0  0  0  0  0  0  0  0
   16.1220   11.8760    0.1230 C   0  0  0  0  0  0  0  0  0  0  0  0
   17.3580   12.4590    0.3910 C   0  0  0  0  0  0  0  0  0  0  0  0
   17.9090   12.4250    1.6760 C   0  0  0  0  0  0  0  0  0  0  0  0
   19.2000   13.0790    1.9090 C   0  0  0  0  0  0  0  0  0  0  0  0
   19.3590   14.4860    1.8510 C   0  0  0  0  0  0  0  0  0  0  0  0
   20.6670   15.0110    1.9120 C   0  0  0  0  0  0  0  0  0  0  0  0
   21.7910   14.1840    2.0070 C   0  0  0  0  0  0  0  0  0  0  0  0
   22.9940   14.8370    1.9900 O   0  0  0  0  0  0  0  0  0  0  0  0
   24.1590   14.0200    1.9580 C   0  0  0  0  0  0  0  0  0  0  0  0
   21.6180   12.8080    2.0920 C   0  0  0  0  0  0  0  0  0  0  0  0
   20.3350   12.2630    2.0530 C   0  0  0  0  0  0  0  0  0  0  0  0
   18.2220   15.4130    1.6580 C   0  0  0  0  0  0  0  0  0  0  0  0
   17.1750   15.5130    2.5860 C   0  0  0  0  0  0  0  0  0  0  0  0
   16.1180   16.4040    2.3800 C   0  0  0  0  0  0  0  0  0  0  0  0
   16.1160   17.2440    1.2670 C   0  0  0  0  0  0  0  0  0  0  0  0
   17.1700   17.2010    0.3440 C   0  0  0  0  0  0  0  0  0  0  0  0
   18.1830   16.2460    0.5270 C   0  0  0  0  0  0  0  0  0  0  0  0
   17.2860   18.2680   -0.7260 C   0  0  2  0  0  0  0  0  0  0  0  0
   17.1470   17.7680   -2.0960 N   0  0  0  0  0  0  0  0  0  0  0  0
   18.6280   19.0140   -0.5640 C   0  0  0  0  0  0  0  0  0  0  0  0
   17.2190   11.7430    2.6820 C   0  0  0  0  0  0  0  0  0  0  0  0
   15.9660   11.1780    2.4150 C   0  0  0  0  0  0  0  0  0  0  0  0
   15.7870   11.9290   -0.8990 H   0  0  0  0  0  0  0  0  0  0  0  0
   17.8860   12.9690   -0.4140 H   0  0  0  0  0  0  0  0  0  0  0  0
   20.8180   16.0880    1.8570 H   0  0  0  0  0  0  0  0  0  0  0  0
   25.0320   14.6780    1.9370 H   0  0  0  0  0  0  0  0  0  0  0  0
   24.1840   13.4020    1.0540 H   0  0  0  0  0  0  0  0  0  0  0  0
   24.2300   13.4030    2.8600 H   0  0  0  0  0  0  0  0  0  0  0  0
   22.4550   12.1230    2.1640 H   0  0  0  0  0  0  0  0  0  0  0  0
   20.2210   11.1810    2.0790 H   0  0  0  0  0  0  0  0  0  0  0  0
   17.1730   14.8950    3.4800 H   0  0  0  0  0  0  0  0  0  0  0  0
   15.3070   16.4600    3.1020 H   0  0  0  0  0  0  0  0  0  0  0  0
   15.3020   17.9570    1.1450 H   0  0  0  0  0  0  0  0  0  0  0  0
   18.9850   16.1750   -0.2050 H   0  0  0  0  0  0  0  0  0  0  0  0
   16.4830   18.9980   -0.5590 H   0  0  0  0  0  0  0  0  0  0  0  0
   17.9910   17.9460   -2.6230 H   0  0  0  0  0  0  0  0  0  0  0  0
   19.4880   18.3370   -0.5930 H   0  0  0  0  0  0  0  0  0  0  0  0
   18.6560   19.5560    0.3870 H   0  0  0  0  0  0  0  0  0  0  0  0
   18.8020   19.7360   -1.3670 H   0  0  0  0  0  0  0  0  0  0  0  0
   17.6310   11.6770    3.6860 H   0  0  0  0  0  0  0  0  0  0  0  0
   15.4290   10.6830    3.2230 H   0  0  0  0  0  0  0  0  0  0  0  0
   16.0130   18.1550   -2.8050 C   0  0  0  0  0  0  0  0  0  0  0  0
   14.9510   17.5480   -2.7760 O   0  0  0  0  0  0  0  0  0  0  0  0
   16.1530   19.3890   -3.6340 C   0  0  0  0  0  0  0  0  0  0  0  0
   16.7090   20.5350   -3.0640 C   0  0  0  0  0  0  0  0  0  0  0  0
   16.8290   21.7090   -3.7930 C   0  0  0  0  0  0  0  0  0  0  0  0
   16.3620   21.7870   -5.1080 C   0  0  0  0  0  0  0  0  0  0  0  0
   16.4700   23.0780   -5.8090 C   0  0  0  0  0  0  0  0  0  0  0  0
   17.7200   23.6850   -6.0920 C   0  0  0  0  0  0  0  0  0  0  0  0
   17.7270   25.0070   -6.5900 C   0  0  0  0  0  0  0  0  0  0  0  0
   16.5480   25.7310   -6.7870 C   0  0  0  0  0  0  0  0  0  0  0  0
   16.7270   27.0180   -7.2160 O   0  0  0  0  0  0  0  0  0  0  0  0
   15.5570   27.8130   -7.3710 C   0  0  0  0  0  0  0  0  0  0  0  0
   15.3280   25.1210   -6.5240 C   0  0  0  0  0  0  0  0  0  0  0  0
   15.2910   23.8070   -6.0480 C   0  0  0  0  0  0  0  0  0  0  0  0
   19.0110   23.0180   -5.8110 C   0  0  0  0  0  0  0  0  0  0  0  0
   19.3590   21.7910   -6.3950 C   0  0  0  0  0  0  0  0  0  0  0  0
   20.5750   21.1730   -6.0940 C   0  0  0  0  0  0  0  0  0  0  0  0
   21.4840   21.7940   -5.2370 C   0  0  0  0  0  0  0  0  0  0  0  0
   21.1870   23.0390   -4.6690 C   0  0  0  0  0  0  0  0  0  0  0  0
   19.9310   23.6130   -4.9310 C   0  0  0  0  0  0  0  0  0  0  0  0
   22.2470   23.7990   -3.8980 C   0  0  2  0  0  0  0  0  0  0  0  0
   21.9500   23.9270   -2.4690 N   0  0  0  0  0  0  0  0  0  0  0  0
   22.4590   25.1890   -4.5360 C   0  0  0  0  0  0  0  0  0  0  0  0
   15.7600   20.6480   -5.6700 C   0  0  0  0  0  0  0  0  0  0  0  0
   15.6540   19.4520   -4.9370 C   0  0  0  0  0  0  0  0  0  0  0  0
   17.0170   20.5710   -2.0300 H   0  0  0  0  0  0  0  0  0  0  0  0
   17.2800   22.5780   -3.3160 H   0  0  0  0  0  0  0  0  0  0  0  0
   18.6770   25.4960   -6.8040 H   0  0  0  0  0  0  0  0  0  0  0  0
   15.8670   28.8030   -7.7210 H   0  0  0  0  0  0  0  0  0  0  0  0
   15.0380   27.9460   -6.4150 H   0  0  0  0  0  0  0  0  0  0  0  0
   14.8900   27.3880   -8.1270 H   0  0  0  0  0  0  0  0  0  0  0  0
   14.3850   25.6430   -6.6500 H   0  0  0  0  0  0  0  0  0  0  0  0
   14.3250   23.3690   -5.8000 H   0  0  0  0  0  0  0  0  0  0  0  0
   18.6770   21.3020   -7.0860 H   0  0  0  0  0  0  0  0  0  0  0  0
   20.8220   20.2150   -6.5430 H   0  0  0  0  0  0  0  0  0  0  0  0
   22.4380   21.3100   -5.0380 H   0  0  0  0  0  0  0  0  0  0  0  0
   19.6700   24.5580   -4.4590 H   0  0  0  0  0  0  0  0  0  0  0  0
   23.1880   23.2420   -3.9950 H   0  0  0  0  0  0  0  0  0  0  0  0
   21.8110   24.8990   -2.2270 H   0  0  0  0  0  0  0  0  0  0  0  0
   21.5370   25.7780   -4.5670 H   0  0  0  0  0  0  0  0  0  0  0  0
   22.8330   25.0910   -5.5610 H   0  0  0  0  0  0  0  0  0  0  0  0
   23.1700   25.8030   -3.9770 H   0  0  0  0  0  0  0  0  0  0  0  0
   15.3640   20.6870   -6.6830 H   0  0  0  0  0  0  0  0  0  0  0  0
   15.1730   18.5820   -5.3800 H   0  0  0  0  0  0  0  0  0  0  0  0
   22.7970   23.2950   -1.5620 C   0  0  0  0  0  0  0  0  0  0  0  0
   22.5760   22.1850   -1.0970 O   0  0  0  0  0  0  0  0  0  0  0  0
   23.9880   24.0760   -1.1150 C   0  0  0  0  0  0  0  0  0  0  0  0
   24.7980   24.7100   -2.0580 C   0  0  0  0  0  0  0  0  0  0  0  0
   25.9010   25.4570   -1.6710 C   0  0  0  0  0  0  0  0  0  0  0  0
   26.2660   25.5440   -0.3250 C   0  0  0  0  0  0  0  0  0  0  0  0
   27.4810   26.2970    0.0240 C   0  0  0  0  0  0  0  0  0  0  0  0
   27.5920   27.6950   -0.1740 C   0  0  0  0  0  0  0  0  0  0  0  0
   28.8490   28.3050    0.0310 C   0  0  0  0  0  0  0  0  0  0  0  0
   29.9800   27.5680    0.3950 C   0  0  0  0  0  0  0  0  0  0  0  0
   31.1340   28.2940    0.5000 O   0  0  0  0  0  0  0  0  0  0  0  0
   32.3310   27.5660    0.7490 C   0  0  0  0  0  0  0  0  0  0  0  0
   29.8570   26.1990    0.6010 C   0  0  0  0  0  0  0  0  0  0  0  0
   28.6190   25.5740    0.4250 C   0  0  0  0  0  0  0  0  0  0  0  0
   26.4650   28.5230   -0.6550 C   0  0  0  0  0  0  0  0  0  0  0  0
   25.2760   28.6580    0.0750 C   0  0  0  0  0  0  0  0  0  0  0  0
   24.2270   29.4480   -0.4030 C   0  0  0  0  0  0  0  0  0  0  0  0
   24.3660   30.1480   -1.6020 C   0  0  0  0  0  0  0  0  0  0  0  0
   25.5520   30.0590   -2.3410 C   0  0  0  0  0  0  0  0  0  0  0  0
   26.5710   29.2110   -1.8750 C   0  0  0  0  0  0  0  0  0  0  0  0
   25.7820   30.9650   -3.5330 C   0  0  2  0  0  0  0  0  0  0  0  0
   25.8930   30.2500   -4.8080 N   0  0  0  0  0  0  0  0  0  0  0  0
   27.0420   31.8220   -3.2770 C   0  0  0  0  0  0  0  0  0  0  0  0
   25.4910   24.8540    0.6230 C   0  0  0  0  0  0  0  0  0  0  0  0
   24.3540   24.1270    0.2330 C   0  0  0  0  0  0  0  0  0  0  0  0
   24.6300   24.6080   -3.1200 H   0  0  0  0  0  0  0  0  0  0  0  0
   26.4900   25.9600   -2.4360 H   0  0  0  0  0  0  0  0  0  0  0  0
   28.9590   29.3780   -0.1230 H   0  0  0  0  0  0  0  0  0  0  0  0
   33.1620   28.2780    0.7530 H   0  0  0  0  0  0  0  0  0  0  0  0
   32.5240   26.8350   -0.0440 H   0  0  0  0  0  0  0  0  0  0  0  0
   32.2990   27.0850    1.7320 H   0  0  0  0  0  0  0  0  0  0  0  0
   30.7040   25.5800    0.8770 H   0  0  0  0  0  0  0  0  0  0  0  0
   28.5560   24.4940    0.5480 H   0  0  0  0  0  0  0  0  0  0  0  0
   25.1570   28.1420    1.0250 H   0  0  0  0  0  0  0  0  0  0  0  0
   23.3090   29.5350    0.1720 H   0  0  0  0  0  0  0  0  0  0  0  0
   23.5520   30.7870   -1.9380 H   0  0  0  0  0  0  0  0  0  0  0  0
   27.4850   29.1080   -2.4580 H   0  0  0  0  0  0  0  0  0  0  0  0
   24.9270   31.6500   -3.6130 H   0  0  0  0  0  0  0  0  0  0  0  0
   26.8000   30.4080   -5.2260 H   0  0  0  0  0  0  0  0  0  0  0  0
   27.9220   31.2140   -3.0470 H   0  0  0  0  0  0  0  0  0  0  0  0
   26.8760   32.5050   -2.4370 H   0  0  0  0  0  0  0  0  0  0  0  0
   27.3300   32.4210   -4.1440 H   0  0  0  0  0  0  0  0  0  0  0  0
   25.7720   24.8800    1.6740 H   0  0  0  0  0  0  0  0  0  0  0  0
   23.7670   23.5960    0.9790 H   0  0  0  0  0  0  0  0  0  0  0  0
   24.8660   30.4160   -5.7380 C   0  0  0  0  0  0  0  0  0  0  0  0
   23.8570   29.7260   -5.7650 O   0  0  0  0  0  0  0  0  0  0  0  0
   25.0710   31.5050   -6.7400 C   0  0  0  0  0  0  0  0  0  0  0  0
   25.5570   32.7410   -6.3130 C   0  0  0  0  0  0  0  0  0  0  0  0
   25.7560   33.7840   -7.2040 C   0  0  0  0  0  0  0  0  0  0  0  0
   25.4260   33.6410   -8.5530 C   0  0  0  0  0  0  0  0  0  0  0  0
   25.5750   34.8130   -9.4310 C   0  0  0  0  0  0  0  0  0  0  0  0
   26.8280   35.4340   -9.6760 C   0  0  0  0  0  0  0  0  0  0  0  0
   26.8430   36.6530  -10.3900 C   0  0  0  0  0  0  0  0  0  0  0  0
   25.6680   37.2690  -10.8290 C   0  0  0  0  0  0  0  0  0  0  0  0
   25.8450   38.4700  -11.4600 O   0  0  0  0  0  0  0  0  0  0  0  0
   24.6700   39.1350  -11.9090 C   0  0  0  0  0  0  0  0  0  0  0  0
   24.4460   36.6540  -10.5780 C   0  0  0  0  0  0  0  0  0  0  0  0
   24.4030   35.4360   -9.8990 C   0  0  0  0  0  0  0  0  0  0  0  0
   28.0980   34.9010   -9.1360 C   0  0  0  0  0  0  0  0  0  0  0  0
   28.5730   33.6270   -9.4730 C   0  0  0  0  0  0  0  0  0  0  0  0
   29.7590   33.1340   -8.9210 C   0  0  0  0  0  0  0  0  0  0  0  0
   30.5070   33.9200   -8.0430 C   0  0  0  0  0  0  0  0  0  0  0  0
   30.0790   35.2110   -7.7060 C   0  0  0  0  0  0  0  0  0  0  0  0
   28.8590   35.6700   -8.2370 C   0  0  0  0  0  0  0  0  0  0  0  0
   30.9860   36.1380   -6.9180 C   0  0  2  0  0  0  0  0  0  0  0  0
   30.4600   36.5070   -5.5970 N   0  0  0  0  0  0  0  0  0  0  0  0
   31.2480   37.3910   -7.7860 C   0  0  0  0  0  0  0  0  0  0  0  0
   24.8880   32.4140   -8.9820 C   0  0  0  0  0  0  0  0  0  0  0  0
   24.7100   31.3480   -8.0800 C   0  0  0  0  0  0  0  0  0  0  0  0
   25.7420   32.9560   -5.2730 H   0  0  0  0  0  0  0  0  0  0  0  0
   26.1490   34.7260   -6.8280 H   0  0  0  0  0  0  0  0  0  0  0  0
   27.7920   37.1520  -10.5840 H   0  0  0  0  0  0  0  0  0  0  0  0
   24.9750   40.0720  -12.3850 H   0  0  0  0  0  0  0  0  0  0  0  0
   24.0120   39.3880  -11.0700 H   0  0  0  0  0  0  0  0  0  0  0  0
   24.1420   38.5350  -12.6580 H   0  0  0  0  0  0  0  0  0  0  0  0
   23.5030   37.1050  -10.8700 H   0  0  0  0  0  0  0  0  0  0  0  0
   23.4340   34.9970   -9.6720 H   0  0  0  0  0  0  0  0  0  0  0  0
   28.0140   33.0020  -10.1650 H   0  0  0  0  0  0  0  0  0  0  0  0
   30.1070   32.1400   -9.1890 H   0  0  0  0  0  0  0  0  0  0  0  0
   31.4410   33.5270   -7.6470 H   0  0  0  0  0  0  0  0  0  0  0  0
   28.5020   36.6620   -7.9660 H   0  0  0  0  0  0  0  0  0  0  0  0
   31.9510   35.6360   -6.7580 H   0  0  0  0  0  0  0  0  0  0  0  0
   30.2780   37.4990   -5.5370 H   0  0  0  0  0  0  0  0  0  0  0  0
   30.3260   37.9380   -8.0080 H   0  0  0  0  0  0  0  0  0  0  0  0
   31.7170   37.1110   -8.7350 H   0  0  0  0  0  0  0  0  0  0  0  0
   31.8980   38.1270   -7.3120 H   0  0  0  0  0  0  0  0  0  0  0  0
   24.5920   32.2850  -10.0220 H   0  0  0  0  0  0  0  0  0  0  0  0
   24.2780   30.4110   -8.4250 H   0  0  0  0  0  0  0  0  0  0  0  0
   31.1170   36.0220   -4.4640 C   0  0  0  0  0  0  0  0  0  0  0  0
   30.9140   34.9140   -3.9860 O   0  0  0  0  0  0  0  0  0  0  0  0
   32.1270   36.9410   -3.8460 C   0  0  0  0  0  0  0  0  0  0  0  0
   32.9270   37.7230   -4.6810 C   0  0  0  0  0  0  0  0  0  0  0  0
   33.9200   38.5500   -4.1790 C   0  0  0  0  0  0  0  0  0  0  0  0
   34.1850   38.5950   -2.8130 C   0  0  0  0  0  0  0  0  0  0  0  0
   35.3370   39.3880   -2.3500 C   0  0  0  0  0  0  0  0  0  0  0  0
   35.4680   40.7880   -2.5680 C   0  0  0  0  0  0  0  0  0  0  0  0
   36.6710   41.4150   -2.1820 C   0  0  0  0  0  0  0  0  0  0  0  0
   37.7460   40.6940   -1.6550 C   0  0  0  0  0  0  0  0  0  0  0  0
   38.8600   41.4390   -1.3800 O   0  0  0  0  0  0  0  0  0  0  0  0
   39.9960   40.7300   -0.8990 C   0  0  0  0  0  0  0  0  0  0  0  0
   37.6230   39.3220   -1.4770 C   0  0  0  0  0  0  0  0  0  0  0  0
   36.4290   38.6820   -1.8090 C   0  0  0  0  0  0  0  0  0  0  0  0
   34.4320   41.6000   -3.2520 C   0  0  0  0  0  0  0  0  0  0  0  0
   33.1300   41.7000   -2.7450 C   0  0  0  0  0  0  0  0  0  0  0  0
   32.1450   42.4030   -3.4400 C   0  0  0  0  0  0  0  0  0  0  0  0
   32.4480   43.0260   -4.6510 C   0  0  0  0  0  0  0  0  0  0  0  0
   33.7440   42.9710   -5.1830 C   0  0  0  0  0  0  0  0  0  0  0  0
   34.7250   42.2580   -4.4680 C   0  0  0  0  0  0  0  0  0  0  0  0
   34.0490   43.6830   -6.4890 C   0  0  2  0  0  0  0  0  0  0  0  0
   34.5400   42.7860   -7.5170 N   0  0  0  0  0  0  0  0  0  0  0  0
   35.0460   44.8300   -6.2940 C   0  0  0  0  0  0  0  0  0  0  0  0
   33.4070   37.7830   -1.9620 C   0  0  0  0  0  0  0  0  0  0  0  0
   32.3830   36.9600   -2.4740 C   0  0  0  0  0  0  0  0  0  0  0  0
   32.8580   37.6580   -5.7470 H   0  0  0  0  0  0  0  0  0  0  0  0
   34.5170   39.1290   -4.8800 H   0  0  0  0  0  0  0  0  0  0  0  0
   36.7860   42.4900   -2.3200 H   0  0  0  0  0  0  0  0  0  0  0  0
   40.8020   41.4520   -0.7470 H   0  0  0  0  0  0  0  0  0  0  0  0
   40.3420   39.9940   -1.6330 H   0  0  0  0  0  0  0  0  0  0  0  0
   39.7830   40.2560    0.0650 H   0  0  0  0  0  0  0  0  0  0  0  0
   38.4370   38.7110   -1.1030 H   0  0  0  0  0  0  0  0  0  0  0  0
   36.3700   37.5990   -1.7000 H   0  0  0  0  0  0  0  0  0  0  0  0
   32.8680   41.2100   -1.8090 H   0  0  0  0  0  0  0  0  0  0  0  0
   31.1340   42.4540   -3.0420 H   0  0  0  0  0  0  0  0  0  0  0  0
   31.6580   43.5560   -5.1810 H   0  0  0  0  0  0  0  0  0  0  0  0
   35.7320   42.1910   -4.8760 H   0  0  0  0  0  0  0  0  0  0  0  0
   33.1210   44.1300   -6.8720 H   0  0  0  0  0  0  0  0  0  0  0  0
   35.5250   42.7540   -7.7290 H   0  0  0  0  0  0  0  0  0  0  0  0
   35.9880   44.4860   -5.8520 H   0  0  0  0  0  0  0  0  0  0  0  0
   34.6310   45.6050   -5.6420 H   0  0  0  0  0  0  0  0  0  0  0  0
   35.2920   45.2940   -7.2560 H   0  0  0  0  0  0  0  0  0  0  0  0
   33.6120   37.7690   -0.8930 H   0  0  0  0  0  0  0  0  0  0  0  0
   31.8130   36.3220   -1.8010 H   0  0  0  0  0  0  0  0  0  0  0  0
   -2.8020   -7.1470    0.1440 C   0  0  0  0  0  0  0  0  0  0  0  0
   -2.3890   -5.7800    0.1500 O   0  0  0  0  0  0  0  0  0  0  0  0
   -3.7340   -7.2390    0.7090 H   0  0  0  0  0  0  0  0  0  0  0  0
   -2.0300   -7.7350    0.6490 H   0  0  0  0  0  0  0  0  0  0  0  0
   -2.9260   -7.5400   -0.8690 H   0  0  0  0  0  0  0  0  0  0  0  0
   34.9820   41.4820  -11.8150 C   0  0  0  0  0  0  0  0  0  0  0  0
   33.9380   41.2440  -10.7110 C   0  0  0  0  0  0  0  0  0  0  0  0
   32.6140   41.8570  -11.1920 C   0  0  0  0  0  0  0  0  0  0  0  0
   33.8040   39.7420  -10.4610 C   0  0  0  0  0  0  0  0  0  0  0  0
   34.4920   41.8600   -9.5160 O   0  0  0  0  0  0  0  0  0  0  0  0
   33.7240   42.2270   -8.4590 C   0  0  0  0  0  0  0  0  0  0  0  0
   32.5160   42.1260   -8.3750 O   0  0  0  0  0  0  0  0  0  0  0  0
   34.7020   40.9870  -12.7500 H   0  0  0  0  0  0  0  0  0  0  0  0
   35.0980   42.5530  -12.0150 H   0  0  0  0  0  0  0  0  0  0  0  0
   35.9710   41.1140  -11.5120 H   0  0  0  0  0  0  0  0  0  0  0  0
   32.6710   42.9510  -11.2070 H   0  0  0  0  0  0  0  0  0  0  0  0
   31.7740   41.5800  -10.5480 H   0  0  0  0  0  0  0  0  0  0  0  0
   32.3610   41.5100  -12.1980 H   0  0  0  0  0  0  0  0  0  0  0  0
   34.7790   39.3040  -10.2150 H   0  0  0  0  0  0  0  0  0  0  0  0
   33.1480   39.5390   -9.6070 H   0  0  0  0  0  0  0  0  0  0  0  0
   33.4070   39.2200  -11.3380 H   0  0  0  0  0  0  0  0  0  0  0  0
  1  3  1  0  0  0  0
  1354  1  0  0  0  0
  2  1  2  0  0  0  0
  3  4  1  0  0  0  0
  4  5  2  0  0  0  0
  4 26  1  0  0  0  0
  5 27  1  0  0  0  0
  6  7  1  0  0  0  0
  6  5  1  0  0  0  0
  7 14  1  0  0  0  0
  8  7  2  0  0  0  0
  8  9  1  0  0  0  0
  9 10  2  0  0  0  0
 10 13  1  0  0  0  0
 10 11  1  0  0  0  0
 11 12  1  0  0  0  0
 12 29  1  0  0  0  0
 12 30  1  0  0  0  0
 13 32  1  0  0  0  0
 14 33  1  0  0  0  0
 14 13  2  0  0  0  0
 15  8  1  0  0  0  0
 15 20  1  0  0  0  0
 16 15  2  0  0  0  0
 17 16  1  0  0  0  0
 17 18  2  0  0  0  0
 18 19  1  0  0  0  0
 19 20  2  0  0  0  0
 19 21  1  0  0  0  0
 20 37  1  0  0  0  0
 21 38  1  6  0  0  0
 21 23  1  0  0  0  0
 21 22  1  0  0  0  0
 22 39  1  0  0  0  0
 22 45  1  0  0  0  0
 23 42  1  0  0  0  0
 23 40  1  0  0  0  0
 24  6  2  0  0  0  0
 25 24  1  0  0  0  0
 25  3  2  0  0  0  0
 28  9  1  0  0  0  0
 31 12  1  0  0  0  0
 34 16  1  0  0  0  0
 35 17  1  0  0  0  0
 36 18  1  0  0  0  0
 41 23  1  0  0  0  0
 43 24  1  0  0  0  0
 44 25  1  0  0  0  0
 45 46  2  0  0  0  0
 47 45  1  0  0  0  0
 47 69  1  0  0  0  0
 48 49  1  0  0  0  0
 48 47  2  0  0  0  0
 49 50  2  0  0  0  0
 50 51  1  0  0  0  0
 50 68  1  0  0  0  0
 51 52  1  0  0  0  0
 52 59  1  0  0  0  0
 53 72  1  0  0  0  0
 53 52  2  0  0  0  0
 54 53  1  0  0  0  0
 55 54  1  0  0  0  0
 56 55  1  0  0  0  0
 56 75  1  0  0  0  0
 57 54  2  0  0  0  0
 57 58  1  0  0  0  0
 58 51  2  0  0  0  0
 59 60  1  0  0  0  0
 60 61  2  0  0  0  0
 60 78  1  0  0  0  0
 61 79  1  0  0  0  0
 62 80  1  0  0  0  0
 62 61  1  0  0  0  0
 63 62  2  0  0  0  0
 64 63  1  0  0  0  0
 64 59  2  0  0  0  0
 65 82  1  1  0  0  0
 65 63  1  0  0  0  0
 66 65  1  0  0  0  0
 67 65  1  0  0  0  0
 67 85  1  0  0  0  0
 68 87  1  0  0  0  0
 69 68  2  0  0  0  0
 69 88  1  0  0  0  0
 70 48  1  0  0  0  0
 71 49  1  0  0  0  0
 73 56  1  0  0  0  0
 74 56  1  0  0  0  0
 76 57  1  0  0  0  0
 77 58  1  0  0  0  0
 81 64  1  0  0  0  0
 83 66  1  0  0  0  0
 84 67  1  0  0  0  0
 86 67  1  0  0  0  0
 89 66  1  0  0  0  0
 90 89  2  0  0  0  0
 91 89  1  0  0  0  0
 91 92  1  0  0  0  0
 92114  1  0  0  0  0
 93 92  2  0  0  0  0
 93115  1  0  0  0  0
 94 93  1  0  0  0  0
 95102  1  0  0  0  0
 95 94  1  0  0  0  0
 96 95  2  0  0  0  0
 97 98  2  0  0  0  0
 97 96  1  0  0  0  0
 98101  1  0  0  0  0
 99 98  1  0  0  0  0
 99100  1  0  0  0  0
100118  1  0  0  0  0
101120  1  0  0  0  0
101102  2  0  0  0  0
102121  1  0  0  0  0
103 96  1  0  0  0  0
103108  1  0  0  0  0
104103  2  0  0  0  0
105104  1  0  0  0  0
105106  2  0  0  0  0
106107  1  0  0  0  0
107108  2  0  0  0  0
107109  1  0  0  0  0
108125  1  0  0  0  0
109126  1  6  0  0  0
109110  1  0  0  0  0
110127  1  0  0  0  0
110133  1  0  0  0  0
111128  1  0  0  0  0
111109  1  0  0  0  0
111130  1  0  0  0  0
112113  1  0  0  0  0
112 94  2  0  0  0  0
113 91  2  0  0  0  0
116 97  1  0  0  0  0
117100  1  0  0  0  0
119100  1  0  0  0  0
122104  1  0  0  0  0
123105  1  0  0  0  0
124106  1  0  0  0  0
129111  1  0  0  0  0
131112  1  0  0  0  0
132113  1  0  0  0  0
133135  1  0  0  0  0
133134  2  0  0  0  0
135157  1  0  0  0  0
136137  1  0  0  0  0
136135  2  0  0  0  0
137138  2  0  0  0  0
138139  1  0  0  0  0
138156  1  0  0  0  0
139146  1  0  0  0  0
140139  2  0  0  0  0
140141  1  0  0  0  0
141142  2  0  0  0  0
142145  1  0  0  0  0
143142  1  0  0  0  0
144143  1  0  0  0  0
144163  1  0  0  0  0
145164  1  0  0  0  0
146165  1  0  0  0  0
146145  2  0  0  0  0
147140  1  0  0  0  0
147148  1  0  0  0  0
148166  1  0  0  0  0
149148  2  0  0  0  0
149167  1  0  0  0  0
150149  1  0  0  0  0
151152  1  0  0  0  0
151150  2  0  0  0  0
152147  2  0  0  0  0
153155  1  0  0  0  0
153170  1  1  0  0  0
153151  1  0  0  0  0
154153  1  0  0  0  0
155173  1  0  0  0  0
156175  1  0  0  0  0
157156  2  0  0  0  0
157176  1  0  0  0  0
158136  1  0  0  0  0
159137  1  0  0  0  0
160141  1  0  0  0  0
161144  1  0  0  0  0
162144  1  0  0  0  0
168150  1  0  0  0  0
169152  1  0  0  0  0
171154  1  0  0  0  0
172155  1  0  0  0  0
174155  1  0  0  0  0
177178  2  0  0  0  0
177154  1  0  0  0  0
179180  1  0  0  0  0
179177  1  0  0  0  0
180202  1  0  0  0  0
181203  1  0  0  0  0
181180  2  0  0  0  0
182181  1  0  0  0  0
183182  1  0  0  0  0
184191  1  0  0  0  0
184183  2  0  0  0  0
185184  1  0  0  0  0
186185  2  0  0  0  0
186189  1  0  0  0  0
187186  1  0  0  0  0
188187  1  0  0  0  0
188206  1  0  0  0  0
189190  2  0  0  0  0
190183  1  0  0  0  0
190209  1  0  0  0  0
191196  1  0  0  0  0
192193  1  0  0  0  0
192191  2  0  0  0  0
193194  2  0  0  0  0
194212  1  0  0  0  0
194195  1  0  0  0  0
195197  1  0  0  0  0
196195  2  0  0  0  0
196213  1  0  0  0  0
197214  1  6  0  0  0
197198  1  0  0  0  0
198215  1  0  0  0  0
198221  1  0  0  0  0
199218  1  0  0  0  0
199197  1  0  0  0  0
200182  2  0  0  0  0
200201  1  0  0  0  0
201179  2  0  0  0  0
204185  1  0  0  0  0
205188  1  0  0  0  0
207188  1  0  0  0  0
208189  1  0  0  0  0
210192  1  0  0  0  0
211193  1  0  0  0  0
216199  1  0  0  0  0
217199  1  0  0  0  0
219200  1  0  0  0  0
220201  1  0  0  0  0
221223  1  0  0  0  0
221222  2  0  0  0  0
223245  1  0  0  0  0
224225  1  0  0  0  0
224223  2  0  0  0  0
225226  2  0  0  0  0
226227  1  0  0  0  0
226244  1  0  0  0  0
227234  1  0  0  0  0
228227  2  0  0  0  0
228229  1  0  0  0  0
229230  2  0  0  0  0
230231  1  0  0  0  0
230233  1  0  0  0  0
231232  1  0  0  0  0
232249  1  0  0  0  0
232251  1  0  0  0  0
233252  1  0  0  0  0
234253  1  0  0  0  0
234233  2  0  0  0  0
235228  1  0  0  0  0
235236  1  0  0  0  0
236254  1  0  0  0  0
237236  2  0  0  0  0
237255  1  0  0  0  0
238237  1  0  0  0  0
239240  1  0  0  0  0
239238  2  0  0  0  0
240235  2  0  0  0  0
241258  1  6  0  0  0
241243  1  0  0  0  0
241239  1  0  0  0  0
242241  1  0  0  0  0
243260  1  0  0  0  0
243261  1  0  0  0  0
244263  1  0  0  0  0
245244  2  0  0  0  0
245264  1  0  0  0  0
246224  1  0  0  0  0
247225  1  0  0  0  0
248229  1  0  0  0  0
250232  1  0  0  0  0
256238  1  0  0  0  0
257240  1  0  0  0  0
259242  1  0  0  0  0
262243  1  0  0  0  0
265242  1  0  0  0  0
266265  2  0  0  0  0
267268  1  0  0  0  0
267265  1  0  0  0  0
268290  1  0  0  0  0
269291  1  0  0  0  0
269268  2  0  0  0  0
270269  1  0  0  0  0
271270  1  0  0  0  0
272271  1  0  0  0  0
272279  1  0  0  0  0
273272  2  0  0  0  0
274277  2  0  0  0  0
274273  1  0  0  0  0
275274  1  0  0  0  0
276275  1  0  0  0  0
276294  1  0  0  0  0
277278  1  0  0  0  0
278297  1  0  0  0  0
278271  2  0  0  0  0
279284  1  0  0  0  0
280279  2  0  0  0  0
280281  1  0  0  0  0
281282  2  0  0  0  0
282283  1  0  0  0  0
282300  1  0  0  0  0
283285  1  0  0  0  0
284301  1  0  0  0  0
284283  2  0  0  0  0
285302  1  1  0  0  0
285286  1  0  0  0  0
286303  1  0  0  0  0
286309  1  0  0  0  0
287306  1  0  0  0  0
287285  1  0  0  0  0
288270  2  0  0  0  0
288289  1  0  0  0  0
289267  2  0  0  0  0
292273  1  0  0  0  0
293276  1  0  0  0  0
295276  1  0  0  0  0
296277  1  0  0  0  0
298280  1  0  0  0  0
299281  1  0  0  0  0
304287  1  0  0  0  0
305287  1  0  0  0  0
307288  1  0  0  0  0
308289  1  0  0  0  0
309310  2  0  0  0  0
309311  1  0  0  0  0
311333  1  0  0  0  0
312313  1  0  0  0  0
312311  2  0  0  0  0
313314  2  0  0  0  0
314315  1  0  0  0  0
314332  1  0  0  0  0
315322  1  0  0  0  0
316315  2  0  0  0  0
316317  1  0  0  0  0
317318  2  0  0  0  0
318321  1  0  0  0  0
318319  1  0  0  0  0
319320  1  0  0  0  0
320337  1  0  0  0  0
320339  1  0  0  0  0
321340  1  0  0  0  0
322341  1  0  0  0  0
322321  2  0  0  0  0
323324  1  0  0  0  0
323316  1  0  0  0  0
324342  1  0  0  0  0
325343  1  0  0  0  0
325324  2  0  0  0  0
326325  1  0  0  0  0
327326  2  0  0  0  0
327328  1  0  0  0  0
328323  2  0  0  0  0
329346  1  6  0  0  0
329331  1  0  0  0  0
329327  1  0  0  0  0
330329  1  0  0  0  0
331348  1  0  0  0  0
331349  1  0  0  0  0
332351  1  0  0  0  0
333332  2  0  0  0  0
333352  1  0  0  0  0
334312  1  0  0  0  0
335313  1  0  0  0  0
336317  1  0  0  0  0
338320  1  0  0  0  0
344326  1  0  0  0  0
345328  1  0  0  0  0
347330  1  0  0  0  0
350331  1  0  0  0  0
353354  1  0  0  0  0
353356  1  0  0  0  0
353355  1  0  0  0  0
357353  1  0  0  0  0
358367  1  0  0  0  0
358359  1  0  0  0  0
359361  1  0  0  0  0
359362  1  0  0  0  0
360359  1  0  0  0  0
360369  1  0  0  0  0
361371  1  0  0  0  0
361372  1  0  0  0  0
362363  1  0  0  0  0
363364  2  0  0  0  0
363330  1  0  0  0  0
365358  1  0  0  0  0
366358  1  0  0  0  0
368360  1  0  0  0  0
370360  1  0  0  0  0
373361  1  0  0  0  0
M  END
