mop_octamer.pdb
 OpenBabel02102610443D

373396  0  0  1  0  0  0  0  0999 V2000
   -3.2360   -4.8650    0.1080 C   0  0  0  0  0  0  0  0  0  0  0  0
   -4.0200   -5.3400   -0.6920 O   0  0  0  0  0  0  0  0  0  0  0  0
   -2.8450   -3.4280    0.1280 C   0  0  0  0  0  0  0  0  0  0  0  0
   -1.8970   -2.9200    1.0230 C   0  0  0  0  0  0  0  0  0  0  0  0
   -1.5800   -1.5580    1.0150 C   0  0  0  0  0  0  0  0  0  0  0  0
   -2.1850   -0.6750    0.1060 C   0  0  0  0  0  0  0  0  0  0  0  0
   -1.8350    0.7600    0.0940 C   0  0  0  0  0  0  0  0  0  0  0  0
   -0.5210    1.2350   -0.1590 C   0  0  0  0  0  0  0  0  0  0  0  0
   -0.2870    2.6270   -0.1010 C   0  0  0  0  0  0  0  0  0  0  0  0
   -1.3030    3.5420    0.1890 C   0  0  0  0  0  0  0  0  0  0  0  0
   -0.9070    4.8500    0.2160 O   0  0  0  0  0  0  0  0  0  0  0  0
   -1.9090    5.8210    0.4930 C   0  0  0  0  0  0  0  0  0  0  0  0
   -2.5900    3.0720    0.4220 C   0  0  0  0  0  0  0  0  0  0  0  0
   -2.8500    1.6990    0.3760 C   0  0  0  0  0  0  0  0  0  0  0  0
    0.6090    0.3410   -0.4970 C   0  0  0  0  0  0  0  0  0  0  0  0
    0.5510   -0.5090   -1.6120 C   0  0  0  0  0  0  0  0  0  0  0  0
    1.6010   -1.3770   -1.9130 C   0  0  0  0  0  0  0  0  0  0  0  0
    2.7460   -1.3890   -1.1210 C   0  0  0  0  0  0  0  0  0  0  0  0
    2.8620   -0.5240   -0.0250 C   0  0  0  0  0  0  0  0  0  0  0  0
    1.7790    0.3210    0.2870 C   0  0  0  0  0  0  0  0  0  0  0  0
    4.1300   -0.4870    0.8160 C   0  0  1  0  0  0  0  0  0  0  0  0
    4.2630   -1.7350    1.5670 N   0  0  0  0  0  0  0  0  0  0  0  0
    5.3570   -0.1940   -0.0540 C   0  0  0  0  0  0  0  0  0  0  0  0
   -3.1320   -1.1970   -0.7920 C   0  0  0  0  0  0  0  0  0  0  0  0
   -3.4590   -2.5580   -0.7820 C   0  0  0  0  0  0  0  0  0  0  0  0
   -1.3910   -3.5680    1.7340 H   0  0  0  0  0  0  0  0  0  0  0  0
   -0.8430   -1.1860    1.7250 H   0  0  0  0  0  0  0  0  0  0  0  0
    0.7120    3.0130   -0.2990 H   0  0  0  0  0  0  0  0  0  0  0  0
   -1.4300    6.8050    0.4980 H   0  0  0  0  0  0  0  0  0  0  0  0
   -2.3530    5.6640    1.4810 H   0  0  0  0  0  0  0  0  0  0  0  0
   -2.6750    5.8270   -0.2900 H   0  0  0  0  0  0  0  0  0  0  0  0
   -3.4130    3.7400    0.6520 H   0  0  0  0  0  0  0  0  0  0  0  0
   -3.8620    1.3560    0.5830 H   0  0  0  0  0  0  0  0  0  0  0  0
   -0.3290   -0.5090   -2.2520 H   0  0  0  0  0  0  0  0  0  0  0  0
    1.5250   -2.0400   -2.7700 H   0  0  0  0  0  0  0  0  0  0  0  0
    3.5520   -2.0750   -1.3720 H   0  0  0  0  0  0  0  0  0  0  0  0
    1.8420    0.9760    1.1560 H   0  0  0  0  0  0  0  0  0  0  0  0
    4.0200    0.3340    1.5260 H   0  0  0  0  0  0  0  0  0  0  0  0
    3.6390   -2.4870    1.3020 H   0  0  0  0  0  0  0  0  0  0  0  0
    5.6130   -1.0430   -0.6970 H   0  0  0  0  0  0  0  0  0  0  0  0
    6.2390    0.0200    0.5560 H   0  0  0  0  0  0  0  0  0  0  0  0
    5.1860    0.6790   -0.6930 H   0  0  0  0  0  0  0  0  0  0  0  0
   -3.6150   -0.5440   -1.5160 H   0  0  0  0  0  0  0  0  0  0  0  0
   -4.1940   -2.9360   -1.4900 H   0  0  0  0  0  0  0  0  0  0  0  0
    5.2510   -2.1750    2.4130 C   0  0  0  0  0  0  0  0  0  0  0  0
    5.3300   -3.3760    2.6650 O   0  0  0  0  0  0  0  0  0  0  0  0
    6.2230   -1.2440    3.0370 C   0  0  0  0  0  0  0  0  0  0  0  0
    5.8400    0.0300    3.4490 C   0  0  0  0  0  0  0  0  0  0  0  0
    6.7570    0.8700    4.0730 C   0  0  0  0  0  0  0  0  0  0  0  0
    8.0390    0.4230    4.4200 C   0  0  0  0  0  0  0  0  0  0  0  0
    8.9190    1.2810    5.2410 C   0  0  0  0  0  0  0  0  0  0  0  0
    8.4860    1.8720    6.4650 C   0  0  0  0  0  0  0  0  0  0  0  0
    9.3560    2.7650    7.1230 C   0  0  0  0  0  0  0  0  0  0  0  0
   10.6220    3.0730    6.6180 C   0  0  0  0  0  0  0  0  0  0  0  0
   11.3280    3.9820    7.3560 O   0  0  0  0  0  0  0  0  0  0  0  0
   12.6240    4.3260    6.8820 C   0  0  0  0  0  0  0  0  0  0  0  0
   11.0530    2.4630    5.4450 C   0  0  0  0  0  0  0  0  0  0  0  0
   10.2110    1.5770    4.7670 C   0  0  0  0  0  0  0  0  0  0  0  0
    7.1540    1.6020    7.0650 C   0  0  0  0  0  0  0  0  0  0  0  0
    6.7430    0.2930    7.3670 C   0  0  0  0  0  0  0  0  0  0  0  0
    5.4480    0.0290    7.8170 C   0  0  0  0  0  0  0  0  0  0  0  0
    4.5510    1.0760    8.0140 C   0  0  0  0  0  0  0  0  0  0  0  0
    4.9450    2.4010    7.7920 C   0  0  0  0  0  0  0  0  0  0  0  0
    6.2410    2.6480    7.3000 C   0  0  0  0  0  0  0  0  0  0  0  0
    3.9940    3.5510    8.0840 C   0  0  1  0  0  0  0  0  0  0  0  0
    2.9100    3.5540    7.1070 N   0  0  0  0  0  0  0  0  0  0  0  0
    3.5380    3.5300    9.5500 C   0  0  0  0  0  0  0  0  0  0  0  0
    8.4180   -0.8680    4.0130 C   0  0  0  0  0  0  0  0  0  0  0  0
    7.5190   -1.6910    3.3190 C   0  0  0  0  0  0  0  0  0  0  0  0
    4.8200    0.3760    3.3510 H   0  0  0  0  0  0  0  0  0  0  0  0
    6.4280    1.8680    4.3580 H   0  0  0  0  0  0  0  0  0  0  0  0
    9.0410    3.2360    8.0530 H   0  0  0  0  0  0  0  0  0  0  0  0
   13.0530    5.0540    7.5780 H   0  0  0  0  0  0  0  0  0  0  0  0
   12.5740    4.7990    5.8960 H   0  0  0  0  0  0  0  0  0  0  0  0
   13.2820    3.4510    6.8680 H   0  0  0  0  0  0  0  0  0  0  0  0
   12.0300    2.6630    5.0190 H   0  0  0  0  0  0  0  0  0  0  0  0
   10.5620    1.1380    3.8350 H   0  0  0  0  0  0  0  0  0  0  0  0
    7.4220   -0.5430    7.2130 H   0  0  0  0  0  0  0  0  0  0  0  0
    5.1350   -0.9950    8.0040 H   0  0  0  0  0  0  0  0  0  0  0  0
    3.5390    0.8530    8.3480 H   0  0  0  0  0  0  0  0  0  0  0  0
    6.5430    3.6700    7.0770 H   0  0  0  0  0  0  0  0  0  0  0  0
    4.5550    4.4800    7.9370 H   0  0  0  0  0  0  0  0  0  0  0  0
    3.2310    3.9140    6.2100 H   0  0  0  0  0  0  0  0  0  0  0  0
    2.8590    2.6970    9.7560 H   0  0  0  0  0  0  0  0  0  0  0  0
    3.0110    4.4520    9.8120 H   0  0  0  0  0  0  0  0  0  0  0  0
    4.3970    3.4490   10.2240 H   0  0  0  0  0  0  0  0  0  0  0  0
    9.4000   -1.2600    4.2680 H   0  0  0  0  0  0  0  0  0  0  0  0
    7.8240   -2.6990    3.0360 H   0  0  0  0  0  0  0  0  0  0  0  0
    1.6400    4.0130    7.4000 C   0  0  0  0  0  0  0  0  0  0  0  0
    0.6830    3.2370    7.4260 O   0  0  0  0  0  0  0  0  0  0  0  0
    1.4340    5.4600    7.6920 C   0  0  0  0  0  0  0  0  0  0  0  0
    2.4670    6.3980    7.6380 C   0  0  0  0  0  0  0  0  0  0  0  0
    2.2480    7.7090    8.0560 C   0  0  0  0  0  0  0  0  0  0  0  0
    0.9770    8.1520    8.4490 C   0  0  0  0  0  0  0  0  0  0  0  0
    0.7570    9.5680    8.8170 C   0  0  0  0  0  0  0  0  0  0  0  0
    1.1490   10.6440    7.9750 C   0  0  0  0  0  0  0  0  0  0  0  0
    0.9930   11.9640    8.4460 C   0  0  0  0  0  0  0  0  0  0  0  0
    0.4390   12.2410    9.6970 C   0  0  0  0  0  0  0  0  0  0  0  0
    0.3740   13.5710   10.0090 O   0  0  0  0  0  0  0  0  0  0  0  0
   -0.2260   13.9110   11.2520 C   0  0  0  0  0  0  0  0  0  0  0  0
    0.0200   11.1880   10.5020 C   0  0  0  0  0  0  0  0  0  0  0  0
    0.1850    9.8690   10.0690 C   0  0  0  0  0  0  0  0  0  0  0  0
    1.7260   10.4340    6.6300 C   0  0  0  0  0  0  0  0  0  0  0  0
    1.0230    9.7330    5.6360 C   0  0  0  0  0  0  0  0  0  0  0  0
    1.6100    9.4530    4.4020 C   0  0  0  0  0  0  0  0  0  0  0  0
    2.9010    9.8970    4.1290 C   0  0  0  0  0  0  0  0  0  0  0  0
    3.6100   10.6430    5.0790 C   0  0  0  0  0  0  0  0  0  0  0  0
    3.0190   10.8910    6.3290 C   0  0  0  0  0  0  0  0  0  0  0  0
    4.9740   11.2070    4.7570 C   0  0  1  0  0  0  0  0  0  0  0  0
    5.9690   10.1400    4.6420 N   0  0  0  0  0  0  0  0  0  0  0  0
    4.9010   12.1990    3.5860 C   0  0  0  0  0  0  0  0  0  0  0  0
   -0.0700    7.2170    8.4570 C   0  0  0  0  0  0  0  0  0  0  0  0
    0.1590    5.8860    8.0960 C   0  0  0  0  0  0  0  0  0  0  0  0
    3.4580    6.1440    7.2830 H   0  0  0  0  0  0  0  0  0  0  0  0
    3.0900    8.4000    8.0480 H   0  0  0  0  0  0  0  0  0  0  0  0
    1.3070   12.7980    7.8210 H   0  0  0  0  0  0  0  0  0  0  0  0
   -0.1690   14.9980   11.3640 H   0  0  0  0  0  0  0  0  0  0  0  0
    0.3150   13.4640   12.0920 H   0  0  0  0  0  0  0  0  0  0  0  0
   -1.2830   13.6270   11.2640 H   0  0  0  0  0  0  0  0  0  0  0  0
   -0.4230   11.3520   11.4780 H   0  0  0  0  0  0  0  0  0  0  0  0
   -0.1160    9.0620   10.7370 H   0  0  0  0  0  0  0  0  0  0  0  0
    0.0160    9.3710    5.8330 H   0  0  0  0  0  0  0  0  0  0  0  0
    1.0640    8.8830    3.6560 H   0  0  0  0  0  0  0  0  0  0  0  0
    3.3540    9.6680    3.1650 H   0  0  0  0  0  0  0  0  0  0  0  0
    3.5770   11.4370    7.0890 H   0  0  0  0  0  0  0  0  0  0  0  0
    5.3080   11.7920    5.6250 H   0  0  0  0  0  0  0  0  0  0  0  0
    6.4750   10.0150    5.5080 H   0  0  0  0  0  0  0  0  0  0  0  0
    4.6220   11.7120    2.6470 H   0  0  0  0  0  0  0  0  0  0  0  0
    5.8620   12.6980    3.4270 H   0  0  0  0  0  0  0  0  0  0  0  0
    4.1620   12.9810    3.7900 H   0  0  0  0  0  0  0  0  0  0  0  0
   -1.0760    7.5180    8.7410 H   0  0  0  0  0  0  0  0  0  0  0  0
   -0.6650    5.1740    8.1290 H   0  0  0  0  0  0  0  0  0  0  0  0
    6.7720   10.0830    3.5200 C   0  0  0  0  0  0  0  0  0  0  0  0
    6.4050    9.5570    2.4760 O   0  0  0  0  0  0  0  0  0  0  0  0
    8.0910   10.7820    3.6050 C   0  0  0  0  0  0  0  0  0  0  0  0
    8.3630   11.7080    4.6180 C   0  0  0  0  0  0  0  0  0  0  0  0
    9.5090   12.4990    4.5570 C   0  0  0  0  0  0  0  0  0  0  0  0
   10.4430   12.3500    3.5210 C   0  0  0  0  0  0  0  0  0  0  0  0
   11.6580   13.1920    3.4820 C   0  0  0  0  0  0  0  0  0  0  0  0
   12.5760   13.2690    4.5650 C   0  0  0  0  0  0  0  0  0  0  0  0
   13.6670   14.1560    4.4620 C   0  0  0  0  0  0  0  0  0  0  0  0
   13.8720   14.9510    3.3300 C   0  0  0  0  0  0  0  0  0  0  0  0
   14.9680   15.7660    3.3940 O   0  0  0  0  0  0  0  0  0  0  0  0
   15.2510   16.5590    2.2480 C   0  0  0  0  0  0  0  0  0  0  0  0
   12.9800   14.8620    2.2680 C   0  0  0  0  0  0  0  0  0  0  0  0
   11.8890   13.9910    2.3440 C   0  0  0  0  0  0  0  0  0  0  0  0
   12.4210   12.4610    5.7940 C   0  0  0  0  0  0  0  0  0  0  0  0
   12.3920   11.0590    5.7400 C   0  0  0  0  0  0  0  0  0  0  0  0
   12.1400   10.2990    6.8820 C   0  0  0  0  0  0  0  0  0  0  0  0
   11.9440   10.9280    8.1090 C   0  0  0  0  0  0  0  0  0  0  0  0
   12.0230   12.3220    8.2120 C   0  0  0  0  0  0  0  0  0  0  0  0
   12.2500   13.0780    7.0470 C   0  0  0  0  0  0  0  0  0  0  0  0
   11.9190   13.0070    9.5570 C   0  0  1  0  0  0  0  0  0  0  0  0
   10.5680   12.8860   10.1150 N   0  0  0  0  0  0  0  0  0  0  0  0
   13.0740   12.5930   10.4800 C   0  0  0  0  0  0  0  0  0  0  0  0
   10.1790   11.3910    2.5290 C   0  0  0  0  0  0  0  0  0  0  0  0
    9.0090   10.6230    2.5630 C   0  0  0  0  0  0  0  0  0  0  0  0
    7.6800   11.8810    5.4420 H   0  0  0  0  0  0  0  0  0  0  0  0
    9.6670   13.2470    5.3330 H   0  0  0  0  0  0  0  0  0  0  0  0
   14.3820   14.2280    5.2800 H   0  0  0  0  0  0  0  0  0  0  0  0
   16.1570   17.1370    2.4570 H   0  0  0  0  0  0  0  0  0  0  0  0
   14.4420   17.2700    2.0490 H   0  0  0  0  0  0  0  0  0  0  0  0
   15.4500   15.9310    1.3730 H   0  0  0  0  0  0  0  0  0  0  0  0
   13.0910   15.4620    1.3710 H   0  0  0  0  0  0  0  0  0  0  0  0
   11.1930   13.9560    1.5070 H   0  0  0  0  0  0  0  0  0  0  0  0
   12.5370   10.5490    4.7900 H   0  0  0  0  0  0  0  0  0  0  0  0
   12.0910    9.2160    6.8140 H   0  0  0  0  0  0  0  0  0  0  0  0
   11.7430   10.3260    8.9950 H   0  0  0  0  0  0  0  0  0  0  0  0
   12.2830   14.1650    7.1090 H   0  0  0  0  0  0  0  0  0  0  0  0
   12.0410   14.0860    9.3880 H   0  0  0  0  0  0  0  0  0  0  0  0
   10.0150   13.7050    9.9030 H   0  0  0  0  0  0  0  0  0  0  0  0
   13.0230   11.5350   10.7590 H   0  0  0  0  0  0  0  0  0  0  0  0
   13.0760   13.1780   11.4050 H   0  0  0  0  0  0  0  0  0  0  0  0
   14.0380   12.7650    9.9900 H   0  0  0  0  0  0  0  0  0  0  0  0
   10.8780   11.2450    1.7090 H   0  0  0  0  0  0  0  0  0  0  0  0
    8.8040    9.9180    1.7580 H   0  0  0  0  0  0  0  0  0  0  0  0
   10.4090   12.4470   11.4170 C   0  0  0  0  0  0  0  0  0  0  0  0
   10.3750   11.2560   11.7070 O   0  0  0  0  0  0  0  0  0  0  0  0
   10.3670   13.4950   12.4820 C   0  0  0  0  0  0  0  0  0  0  0  0
   10.8320   14.7930   12.2410 C   0  0  0  0  0  0  0  0  0  0  0  0
   11.0070   15.6830   13.2980 C   0  0  0  0  0  0  0  0  0  0  0  0
   10.6680   15.3280   14.6120 C   0  0  0  0  0  0  0  0  0  0  0  0
   10.8420   16.2950   15.7150 C   0  0  0  0  0  0  0  0  0  0  0  0
   10.2460   17.5830   15.6970 C   0  0  0  0  0  0  0  0  0  0  0  0
   10.5180   18.4670   16.7600 C   0  0  0  0  0  0  0  0  0  0  0  0
   11.3380   18.1080   17.8320 C   0  0  0  0  0  0  0  0  0  0  0  0
   11.4970   19.0860   18.7730 O   0  0  0  0  0  0  0  0  0  0  0  0
   12.2820   18.7630   19.9130 C   0  0  0  0  0  0  0  0  0  0  0  0
   11.9060   16.8400   17.8560 C   0  0  0  0  0  0  0  0  0  0  0  0
   11.6630   15.9470   16.8070 C   0  0  0  0  0  0  0  0  0  0  0  0
    9.3520   18.0360   14.6110 C   0  0  0  0  0  0  0  0  0  0  0  0
    8.1590   17.3580   14.3180 C   0  0  0  0  0  0  0  0  0  0  0  0
    7.3480   17.7560   13.2550 C   0  0  0  0  0  0  0  0  0  0  0  0
    7.7060   18.8540   12.4780 C   0  0  0  0  0  0  0  0  0  0  0  0
    8.8710   19.5760   12.7640 C   0  0  0  0  0  0  0  0  0  0  0  0
    9.6910   19.1500   13.8240 C   0  0  0  0  0  0  0  0  0  0  0  0
    9.2310   20.8120   11.9750 C   0  0  1  0  0  0  0  0  0  0  0  0
    9.6290   20.4700   10.6080 N   0  0  0  0  0  0  0  0  0  0  0  0
    8.1600   21.9050   12.1130 C   0  0  0  0  0  0  0  0  0  0  0  0
   10.1570   14.0400   14.8380 C   0  0  0  0  0  0  0  0  0  0  0  0
   10.0160   13.1270   13.7850 C   0  0  0  0  0  0  0  0  0  0  0  0
   11.1220   15.1290   11.2530 H   0  0  0  0  0  0  0  0  0  0  0  0
   11.4190   16.6680   13.0850 H   0  0  0  0  0  0  0  0  0  0  0  0
   10.0720   19.4600   16.7600 H   0  0  0  0  0  0  0  0  0  0  0  0
   12.2780   19.6340   20.5760 H   0  0  0  0  0  0  0  0  0  0  0  0
   13.3200   18.5610   19.6320 H   0  0  0  0  0  0  0  0  0  0  0  0
   11.8490   17.9230   20.4660 H   0  0  0  0  0  0  0  0  0  0  0  0
   12.5490   16.5140   18.6670 H   0  0  0  0  0  0  0  0  0  0  0  0
   12.1420   14.9680   16.8360 H   0  0  0  0  0  0  0  0  0  0  0  0
    7.8630   16.4950   14.9100 H   0  0  0  0  0  0  0  0  0  0  0  0
    6.4370   17.2080   13.0310 H   0  0  0  0  0  0  0  0  0  0  0  0
    7.0690   19.1530   11.6460 H   0  0  0  0  0  0  0  0  0  0  0  0
   10.6140   19.6870   14.0390 H   0  0  0  0  0  0  0  0  0  0  0  0
   10.1440   21.2370   12.4150 H   0  0  0  0  0  0  0  0  0  0  0  0
   10.6340   20.4560   10.5030 H   0  0  0  0  0  0  0  0  0  0  0  0
    7.1980   21.6000   11.6870 H   0  0  0  0  0  0  0  0  0  0  0  0
    8.4640   22.8290   11.6120 H   0  0  0  0  0  0  0  0  0  0  0  0
    7.9940   22.1500   13.1680 H   0  0  0  0  0  0  0  0  0  0  0  0
    9.8760   13.7320   15.8430 H   0  0  0  0  0  0  0  0  0  0  0  0
    9.6560   12.1210   13.9910 H   0  0  0  0  0  0  0  0  0  0  0  0
    8.9590   21.0420    9.5440 C   0  0  0  0  0  0  0  0  0  0  0  0
    7.8620   20.6490    9.1650 O   0  0  0  0  0  0  0  0  0  0  0  0
    9.5950   22.2500    8.9360 C   0  0  0  0  0  0  0  0  0  0  0  0
   10.5890   22.9620    9.6170 C   0  0  0  0  0  0  0  0  0  0  0  0
   11.0200   24.1980    9.1400 C   0  0  0  0  0  0  0  0  0  0  0  0
   10.5080   24.7360    7.9500 C   0  0  0  0  0  0  0  0  0  0  0  0
   10.9900   26.0430    7.4610 C   0  0  0  0  0  0  0  0  0  0  0  0
   12.3630   26.3090    7.2170 C   0  0  0  0  0  0  0  0  0  0  0  0
   12.7400   27.6080    6.8220 C   0  0  0  0  0  0  0  0  0  0  0  0
   11.8030   28.6300    6.6510 C   0  0  0  0  0  0  0  0  0  0  0  0
   12.3310   29.8310    6.2650 O   0  0  0  0  0  0  0  0  0  0  0  0
   11.4090   30.8830    6.0080 C   0  0  0  0  0  0  0  0  0  0  0  0
   10.4590   28.3640    6.8820 C   0  0  0  0  0  0  0  0  0  0  0  0
   10.0580   27.0850    7.2820 C   0  0  0  0  0  0  0  0  0  0  0  0
   13.4110   25.2770    7.3680 C   0  0  0  0  0  0  0  0  0  0  0  0
   13.3960   24.1080    6.5920 C   0  0  0  0  0  0  0  0  0  0  0  0
   14.3430   23.1030    6.7900 C   0  0  0  0  0  0  0  0  0  0  0  0
   15.3420   23.2610    7.7480 C   0  0  0  0  0  0  0  0  0  0  0  0
   15.4140   24.4350    8.5080 C   0  0  0  0  0  0  0  0  0  0  0  0
   14.4350   25.4270    8.3190 C   0  0  0  0  0  0  0  0  0  0  0  0
   16.5470   24.6690    9.4820 C   0  0  1  0  0  0  0  0  0  0  0  0
   16.4530   23.7900   10.6490 N   0  0  0  0  0  0  0  0  0  0  0  0
   17.9080   24.7030    8.7700 C   0  0  0  0  0  0  0  0  0  0  0  0
    9.5320   24.0010    7.2580 C   0  0  0  0  0  0  0  0  0  0  0  0
    9.0730   22.7720    7.7490 C   0  0  0  0  0  0  0  0  0  0  0  0
   11.0100   22.6150   10.5540 H   0  0  0  0  0  0  0  0  0  0  0  0
   11.7620   24.7480    9.7150 H   0  0  0  0  0  0  0  0  0  0  0  0
   13.7900   27.8290    6.6320 H   0  0  0  0  0  0  0  0  0  0  0  0
   11.9810   31.7580    5.6850 H   0  0  0  0  0  0  0  0  0  0  0  0
   10.8630   31.1590    6.9160 H   0  0  0  0  0  0  0  0  0  0  0  0
   10.7220   30.6170    5.1980 H   0  0  0  0  0  0  0  0  0  0  0  0
    9.6940   29.1260    6.7720 H   0  0  0  0  0  0  0  0  0  0  0  0
    9.0020   26.9100    7.4790 H   0  0  0  0  0  0  0  0  0  0  0  0
   12.6240   23.9650    5.8380 H   0  0  0  0  0  0  0  0  0  0  0  0
   14.3020   22.1940    6.1950 H   0  0  0  0  0  0  0  0  0  0  0  0
   16.0760   22.4690    7.8940 H   0  0  0  0  0  0  0  0  0  0  0  0
   14.4620   26.3310    8.9250 H   0  0  0  0  0  0  0  0  0  0  0  0
   16.4150   25.6740    9.9060 H   0  0  0  0  0  0  0  0  0  0  0  0
   16.0540   24.2680   11.4440 H   0  0  0  0  0  0  0  0  0  0  0  0
   18.1730   23.7350    8.3320 H   0  0  0  0  0  0  0  0  0  0  0  0
   18.7100   24.9850    9.4600 H   0  0  0  0  0  0  0  0  0  0  0  0
   17.9030   25.4440    7.9630 H   0  0  0  0  0  0  0  0  0  0  0  0
    9.1090   24.3880    6.3320 H   0  0  0  0  0  0  0  0  0  0  0  0
    8.2880   22.2380    7.2160 H   0  0  0  0  0  0  0  0  0  0  0  0
   17.5210   22.9730   10.9680 C   0  0  0  0  0  0  0  0  0  0  0  0
   17.7540   21.9270   10.3760 O   0  0  0  0  0  0  0  0  0  0  0  0
   18.4560   23.4860   12.0180 C   0  0  0  0  0  0  0  0  0  0  0  0
   18.4910   24.8450   12.3550 C   0  0  0  0  0  0  0  0  0  0  0  0
   19.5110   25.3450   13.1640 C   0  0  0  0  0  0  0  0  0  0  0  0
   20.4960   24.4990   13.6940 C   0  0  0  0  0  0  0  0  0  0  0  0
   21.5820   25.0460   14.5330 C   0  0  0  0  0  0  0  0  0  0  0  0
   21.3420   25.7640   15.7350 C   0  0  0  0  0  0  0  0  0  0  0  0
   22.4430   26.2950   16.4380 C   0  0  0  0  0  0  0  0  0  0  0  0
   23.7570   26.1260   15.9910 C   0  0  0  0  0  0  0  0  0  0  0  0
   24.7160   26.6980   16.7820 O   0  0  0  0  0  0  0  0  0  0  0  0
   26.0650   26.5570   16.3530 C   0  0  0  0  0  0  0  0  0  0  0  0
   23.9870   25.4160   14.8180 C   0  0  0  0  0  0  0  0  0  0  0  0
   22.9130   24.8870   14.0990 C   0  0  0  0  0  0  0  0  0  0  0  0
   19.9790   25.9820   16.2640 C   0  0  0  0  0  0  0  0  0  0  0  0
   19.1590   24.9030   16.6260 C   0  0  0  0  0  0  0  0  0  0  0  0
   17.8390   25.1090   17.0300 C   0  0  0  0  0  0  0  0  0  0  0  0
   17.3230   26.4010   17.1010 C   0  0  0  0  0  0  0  0  0  0  0  0
   18.1250   27.5040   16.7830 C   0  0  0  0  0  0  0  0  0  0  0  0
   19.4500   27.2800   16.3670 C   0  0  0  0  0  0  0  0  0  0  0  0
   17.5930   28.9130   16.9040 C   0  0  1  0  0  0  0  0  0  0  0  0
   16.5250   29.1730   15.9360 N   0  0  0  0  0  0  0  0  0  0  0  0
   17.2770   29.2850   18.3590 C   0  0  0  0  0  0  0  0  0  0  0  0
   20.4280   23.1300   13.3850 C   0  0  0  0  0  0  0  0  0  0  0  0
   19.4240   22.6280   12.5460 C   0  0  0  0  0  0  0  0  0  0  0  0
   17.7770   25.5550   11.9540 H   0  0  0  0  0  0  0  0  0  0  0  0
   19.5390   26.4140   13.3670 H   0  0  0  0  0  0  0  0  0  0  0  0
   22.2760   26.8470   17.3620 H   0  0  0  0  0  0  0  0  0  0  0  0
   26.7050   27.0660   17.0800 H   0  0  0  0  0  0  0  0  0  0  0  0
   26.2210   27.0350   15.3800 H   0  0  0  0  0  0  0  0  0  0  0  0
   26.3640   25.5030   16.3270 H   0  0  0  0  0  0  0  0  0  0  0  0
   24.9870   25.2590   14.4270 H   0  0  0  0  0  0  0  0  0  0  0  0
   23.1210   24.3560   13.1700 H   0  0  0  0  0  0  0  0  0  0  0  0
   19.5400   23.8860   16.5670 H   0  0  0  0  0  0  0  0  0  0  0  0
   17.2100   24.2600   17.2810 H   0  0  0  0  0  0  0  0  0  0  0  0
   16.2880   26.5490   17.4080 H   0  0  0  0  0  0  0  0  0  0  0  0
   20.0800   28.1280   16.0970 H   0  0  0  0  0  0  0  0  0  0  0  0
   18.3940   29.5970   16.5930 H   0  0  0  0  0  0  0  0  0  0  0  0
   16.8540   29.6930   15.1350 H   0  0  0  0  0  0  0  0  0  0  0  0
   16.4490   28.6950   18.7680 H   0  0  0  0  0  0  0  0  0  0  0  0
   17.0050   30.3430   18.4430 H   0  0  0  0  0  0  0  0  0  0  0  0
   18.1490   29.1200   19.0010 H   0  0  0  0  0  0  0  0  0  0  0  0
   21.1730   22.4440   13.7820 H   0  0  0  0  0  0  0  0  0  0  0  0
   19.4210   21.5710   12.2840 H   0  0  0  0  0  0  0  0  0  0  0  0
   15.2670   29.5370   16.3830 C   0  0  0  0  0  0  0  0  0  0  0  0
   14.4890   28.7420   16.8960 O   0  0  0  0  0  0  0  0  0  0  0  0
   14.9400   30.9950   16.3060 C   0  0  0  0  0  0  0  0  0  0  0  0
   15.9460   31.9450   16.1060 C   0  0  0  0  0  0  0  0  0  0  0  0
   15.6700   33.3050   16.2390 C   0  0  0  0  0  0  0  0  0  0  0  0
   14.3800   33.7680   16.5330 C   0  0  0  0  0  0  0  0  0  0  0  0
   14.1330   35.2190   16.7100 C   0  0  0  0  0  0  0  0  0  0  0  0
   14.5510   36.2020   15.7690 C   0  0  0  0  0  0  0  0  0  0  0  0
   14.3440   37.5640   16.0820 C   0  0  0  0  0  0  0  0  0  0  0  0
   13.7610   37.9750   17.2850 C   0  0  0  0  0  0  0  0  0  0  0  0
   13.6670   39.3300   17.4400 O   0  0  0  0  0  0  0  0  0  0  0  0
   13.0430   39.8100   18.6250 C   0  0  0  0  0  0  0  0  0  0  0  0
   13.3540   37.0150   18.2000 C   0  0  0  0  0  0  0  0  0  0  0  0
   13.5330   35.6570   17.9120 C   0  0  0  0  0  0  0  0  0  0  0  0
   15.2200   35.8690   14.4880 C   0  0  0  0  0  0  0  0  0  0  0  0
   14.6050   35.0390   13.5390 C   0  0  0  0  0  0  0  0  0  0  0  0
   15.2760   34.6650   12.3730 C   0  0  0  0  0  0  0  0  0  0  0  0
   16.5680   35.1240   12.1230 C   0  0  0  0  0  0  0  0  0  0  0  0
   17.2120   35.9760   13.0290 C   0  0  0  0  0  0  0  0  0  0  0  0
   16.5210   36.3400   14.2030 C   0  0  0  0  0  0  0  0  0  0  0  0
   18.6020   36.5270   12.7540 C   0  0  1  0  0  0  0  0  0  0  0  0
   19.6510   35.5230   12.7940 N   0  0  0  0  0  0  0  0  0  0  0  0
   18.6620   37.4070   11.4990 C   0  0  0  0  0  0  0  0  0  0  0  0
   13.3670   32.8060   16.7020 C   0  0  0  0  0  0  0  0  0  0  0  0
   13.6450   31.4330   16.6000 C   0  0  0  0  0  0  0  0  0  0  0  0
   16.9750   31.6660   15.9060 H   0  0  0  0  0  0  0  0  0  0  0  0
   16.4920   34.0080   16.1250 H   0  0  0  0  0  0  0  0  0  0  0  0
   14.6500   38.3300   15.3710 H   0  0  0  0  0  0  0  0  0  0  0  0
   13.0480   40.9030   18.5840 H   0  0  0  0  0  0  0  0  0  0  0  0
   13.6010   39.5100   19.5180 H   0  0  0  0  0  0  0  0  0  0  0  0
   12.0000   39.4820   18.6810 H   0  0  0  0  0  0  0  0  0  0  0  0
   12.9150   37.2810   19.1570 H   0  0  0  0  0  0  0  0  0  0  0  0
   13.2310   34.9280   18.6630 H   0  0  0  0  0  0  0  0  0  0  0  0
   13.6010   34.6590   13.7170 H   0  0  0  0  0  0  0  0  0  0  0  0
   14.7870   34.0080   11.6580 H   0  0  0  0  0  0  0  0  0  0  0  0
   17.0670   34.8170   11.2060 H   0  0  0  0  0  0  0  0  0  0  0  0
   17.0050   37.0000   14.9260 H   0  0  0  0  0  0  0  0  0  0  0  0
   18.8560   37.1930   13.5910 H   0  0  0  0  0  0  0  0  0  0  0  0
   20.2250   35.4560   13.6210 H   0  0  0  0  0  0  0  0  0  0  0  0
   18.3910   36.8610   10.5900 H   0  0  0  0  0  0  0  0  0  0  0  0
   19.6780   37.7960   11.3560 H   0  0  0  0  0  0  0  0  0  0  0  0
   17.9780   38.2570   11.5760 H   0  0  0  0  0  0  0  0  0  0  0  0
   12.3500   33.1160   16.9370 H   0  0  0  0  0  0  0  0  0  0  0  0
   12.8530   30.7080   16.7860 H   0  0  0  0  0  0  0  0  0  0  0  0
   -2.9360   -6.9280    1.1760 C   0  0  0  0  0  0  0  0  0  0  0  0
   -2.6110   -5.5390    1.1070 O   0  0  0  0  0  0  0  0  0  0  0  0
   -3.9680   -7.0570    1.5170 H   0  0  0  0  0  0  0  0  0  0  0  0
   -2.2680   -7.3930    1.9050 H   0  0  0  0  0  0  0  0  0  0  0  0
   -2.7830   -7.4170    0.2080 H   0  0  0  0  0  0  0  0  0  0  0  0
   23.5690   33.6140   11.4810 C   0  0  0  0  0  0  0  0  0  0  0  0
   22.1380   33.7220   10.9310 C   0  0  0  0  0  0  0  0  0  0  0  0
   22.2060   34.4590    9.5840 C   0  0  0  0  0  0  0  0  0  0  0  0
   21.5500   32.3190   10.7730 C   0  0  0  0  0  0  0  0  0  0  0  0
   21.3910   34.4300   11.9590 O   0  0  0  0  0  0  0  0  0  0  0  0
   20.1320   34.8630   11.7010 C   0  0  0  0  0  0  0  0  0  0  0  0
   19.5380   34.7270   10.6380 O   0  0  0  0  0  0  0  0  0  0  0  0
   24.2150   33.0330   10.8150 H   0  0  0  0  0  0  0  0  0  0  0  0
   24.0130   34.6090   11.6070 H   0  0  0  0  0  0  0  0  0  0  0  0
   23.5760   33.1440   12.4700 H   0  0  0  0  0  0  0  0  0  0  0  0
   22.4730   35.5130    9.7180 H   0  0  0  0  0  0  0  0  0  0  0  0
   21.2540   34.4350    9.0460 H   0  0  0  0  0  0  0  0  0  0  0  0
   22.9460   33.9960    8.9190 H   0  0  0  0  0  0  0  0  0  0  0  0
   21.5120   31.8070   11.7420 H   0  0  0  0  0  0  0  0  0  0  0  0
   20.5200   32.3570   10.4030 H   0  0  0  0  0  0  0  0  0  0  0  0
   22.1370   31.7120   10.0780 H   0  0  0  0  0  0  0  0  0  0  0  0
  1  3  1  0  0  0  0
  1354  1  0  0  0  0
  2  1  2  0  0  0  0
  3  4  1  0  0  0  0
  4 26  1  0  0  0  0
  5  4  2  0  0  0  0
  5 27  1  0  0  0  0
  6  5  1  0  0  0  0
  7  6  1  0  0  0  0
  7 14  1  0  0  0  0
  8  9  1  0  0  0  0
  8  7  2  0  0  0  0
  9 10  2  0  0  0  0
 10 11  1  0  0  0  0
 10 13  1  0  0  0  0
 11 12  1  0  0  0  0
 12 29  1  0  0  0  0
 12 30  1  0  0  0  0
 13 32  1  0  0  0  0
 14 13  2  0  0  0  0
 14 33  1  0  0  0  0
 15  8  1  0  0  0  0
 15 20  1  0  0  0  0
 16 15  2  0  0  0  0
 17 16  1  0  0  0  0
 17 18  2  0  0  0  0
 18 19  1  0  0  0  0
 19 20  2  0  0  0  0
 19 21  1  0  0  0  0
 20 37  1  0  0  0  0
 21 38  1  1  0  0  0
 21 22  1  0  0  0  0
 22 45  1  0  0  0  0
 23 41  1  0  0  0  0
 23 21  1  0  0  0  0
 24 25  1  0  0  0  0
 24  6  2  0  0  0  0
 25  3  2  0  0  0  0
 28  9  1  0  0  0  0
 31 12  1  0  0  0  0
 34 16  1  0  0  0  0
 35 17  1  0  0  0  0
 36 18  1  0  0  0  0
 39 22  1  0  0  0  0
 40 23  1  0  0  0  0
 42 23  1  0  0  0  0
 43 24  1  0  0  0  0
 44 25  1  0  0  0  0
 45 46  2  0  0  0  0
 45 47  1  0  0  0  0
 47 69  2  0  0  0  0
 47 48  1  0  0  0  0
 48 49  2  0  0  0  0
 49 71  1  0  0  0  0
 49 50  1  0  0  0  0
 50 51  1  0  0  0  0
 51 52  1  0  0  0  0
 52 59  1  0  0  0  0
 52 53  2  0  0  0  0
 53 72  1  0  0  0  0
 54 53  1  0  0  0  0
 54 55  1  0  0  0  0
 56 55  1  0  0  0  0
 56 73  1  0  0  0  0
 57 54  2  0  0  0  0
 58 51  2  0  0  0  0
 58 57  1  0  0  0  0
 59 64  2  0  0  0  0
 59 60  1  0  0  0  0
 60 61  2  0  0  0  0
 61 79  1  0  0  0  0
 61 62  1  0  0  0  0
 62 80  1  0  0  0  0
 63 62  2  0  0  0  0
 63 65  1  0  0  0  0
 64 63  1  0  0  0  0
 65 82  1  6  0  0  0
 65 67  1  0  0  0  0
 66 89  1  0  0  0  0
 66 65  1  0  0  0  0
 67 84  1  0  0  0  0
 67 85  1  0  0  0  0
 67 86  1  0  0  0  0
 68 87  1  0  0  0  0
 68 50  2  0  0  0  0
 69 68  1  0  0  0  0
 70 48  1  0  0  0  0
 74 56  1  0  0  0  0
 75 56  1  0  0  0  0
 76 57  1  0  0  0  0
 77 58  1  0  0  0  0
 78 60  1  0  0  0  0
 81 64  1  0  0  0  0
 83 66  1  0  0  0  0
 88 69  1  0  0  0  0
 89 90  2  0  0  0  0
 89 91  1  0  0  0  0
 91113  1  0  0  0  0
 92 91  2  0  0  0  0
 92 93  1  0  0  0  0
 93 94  2  0  0  0  0
 94112  1  0  0  0  0
 94 95  1  0  0  0  0
 95102  1  0  0  0  0
 96 97  1  0  0  0  0
 96 95  2  0  0  0  0
 97 98  2  0  0  0  0
 98 99  1  0  0  0  0
 98101  1  0  0  0  0
 99100  1  0  0  0  0
100119  1  0  0  0  0
100117  1  0  0  0  0
100118  1  0  0  0  0
101120  1  0  0  0  0
102101  2  0  0  0  0
102121  1  0  0  0  0
103 96  1  0  0  0  0
104122  1  0  0  0  0
104103  2  0  0  0  0
105104  1  0  0  0  0
106105  2  0  0  0  0
106107  1  0  0  0  0
107108  2  0  0  0  0
108103  1  0  0  0  0
108125  1  0  0  0  0
109107  1  0  0  0  0
109126  1  1  0  0  0
110109  1  0  0  0  0
110127  1  0  0  0  0
111130  1  0  0  0  0
111109  1  0  0  0  0
112131  1  0  0  0  0
113132  1  0  0  0  0
113112  2  0  0  0  0
114 92  1  0  0  0  0
115 93  1  0  0  0  0
116 97  1  0  0  0  0
123105  1  0  0  0  0
124106  1  0  0  0  0
128111  1  0  0  0  0
129111  1  0  0  0  0
133135  1  0  0  0  0
133110  1  0  0  0  0
134133  2  0  0  0  0
135136  1  0  0  0  0
136158  1  0  0  0  0
137136  2  0  0  0  0
137159  1  0  0  0  0
138137  1  0  0  0  0
139138  1  0  0  0  0
139140  1  0  0  0  0
140147  1  0  0  0  0
141140  2  0  0  0  0
141160  1  0  0  0  0
142143  1  0  0  0  0
142141  1  0  0  0  0
144161  1  0  0  0  0
144143  1  0  0  0  0
145146  1  0  0  0  0
145142  2  0  0  0  0
146139  2  0  0  0  0
147152  1  0  0  0  0
148147  2  0  0  0  0
148149  1  0  0  0  0
149150  2  0  0  0  0
150151  1  0  0  0  0
150168  1  0  0  0  0
151153  1  0  0  0  0
152169  1  0  0  0  0
152151  2  0  0  0  0
153170  1  6  0  0  0
153154  1  0  0  0  0
153155  1  0  0  0  0
154177  1  0  0  0  0
155172  1  0  0  0  0
155173  1  0  0  0  0
156157  1  0  0  0  0
156138  2  0  0  0  0
157135  2  0  0  0  0
162144  1  0  0  0  0
163144  1  0  0  0  0
164145  1  0  0  0  0
165146  1  0  0  0  0
166148  1  0  0  0  0
167149  1  0  0  0  0
171154  1  0  0  0  0
174155  1  0  0  0  0
175156  1  0  0  0  0
176157  1  0  0  0  0
177178  2  0  0  0  0
177179  1  0  0  0  0
179201  1  0  0  0  0
180179  2  0  0  0  0
180181  1  0  0  0  0
181182  2  0  0  0  0
182200  1  0  0  0  0
182183  1  0  0  0  0
183190  1  0  0  0  0
184183  2  0  0  0  0
184185  1  0  0  0  0
185204  1  0  0  0  0
185186  2  0  0  0  0
186189  1  0  0  0  0
186187  1  0  0  0  0
187188  1  0  0  0  0
188207  1  0  0  0  0
188205  1  0  0  0  0
189208  1  0  0  0  0
190209  1  0  0  0  0
190189  2  0  0  0  0
191184  1  0  0  0  0
192191  1  0  0  0  0
192210  1  0  0  0  0
193192  2  0  0  0  0
194195  2  0  0  0  0
194193  1  0  0  0  0
195196  1  0  0  0  0
196213  1  0  0  0  0
196191  2  0  0  0  0
197199  1  0  0  0  0
197214  1  1  0  0  0
197195  1  0  0  0  0
198197  1  0  0  0  0
199218  1  0  0  0  0
200219  1  0  0  0  0
201220  1  0  0  0  0
201200  2  0  0  0  0
202180  1  0  0  0  0
203181  1  0  0  0  0
206188  1  0  0  0  0
211193  1  0  0  0  0
212194  1  0  0  0  0
215198  1  0  0  0  0
216199  1  0  0  0  0
217199  1  0  0  0  0
221198  1  0  0  0  0
222221  2  0  0  0  0
223221  1  0  0  0  0
223224  1  0  0  0  0
224246  1  0  0  0  0
225224  2  0  0  0  0
225247  1  0  0  0  0
226225  1  0  0  0  0
227226  1  0  0  0  0
228235  1  0  0  0  0
228227  2  0  0  0  0
229228  1  0  0  0  0
230229  2  0  0  0  0
230233  1  0  0  0  0
231230  1  0  0  0  0
232231  1  0  0  0  0
232250  1  0  0  0  0
233234  2  0  0  0  0
234227  1  0  0  0  0
234253  1  0  0  0  0
235240  1  0  0  0  0
236237  1  0  0  0  0
236235  2  0  0  0  0
237238  2  0  0  0  0
238256  1  0  0  0  0
238239  1  0  0  0  0
239241  1  0  0  0  0
240239  2  0  0  0  0
240257  1  0  0  0  0
241258  1  1  0  0  0
241242  1  0  0  0  0
242265  1  0  0  0  0
242259  1  0  0  0  0
243261  1  0  0  0  0
243241  1  0  0  0  0
244245  1  0  0  0  0
244226  2  0  0  0  0
245223  2  0  0  0  0
248229  1  0  0  0  0
249232  1  0  0  0  0
251232  1  0  0  0  0
252233  1  0  0  0  0
254236  1  0  0  0  0
255237  1  0  0  0  0
260243  1  0  0  0  0
262243  1  0  0  0  0
263244  1  0  0  0  0
264245  1  0  0  0  0
265267  1  0  0  0  0
266265  2  0  0  0  0
267268  2  0  0  0  0
267289  1  0  0  0  0
268269  1  0  0  0  0
269291  1  0  0  0  0
269270  2  0  0  0  0
270271  1  0  0  0  0
271272  1  0  0  0  0
272279  1  0  0  0  0
272273  2  0  0  0  0
273292  1  0  0  0  0
274273  1  0  0  0  0
274275  1  0  0  0  0
276275  1  0  0  0  0
276293  1  0  0  0  0
277274  2  0  0  0  0
278271  2  0  0  0  0
278277  1  0  0  0  0
279284  2  0  0  0  0
279280  1  0  0  0  0
280281  2  0  0  0  0
281282  1  0  0  0  0
281299  1  0  0  0  0
282300  1  0  0  0  0
283285  1  0  0  0  0
283282  2  0  0  0  0
284283  1  0  0  0  0
285302  1  6  0  0  0
285287  1  0  0  0  0
286309  1  0  0  0  0
286285  1  0  0  0  0
287305  1  0  0  0  0
287304  1  0  0  0  0
287306  1  0  0  0  0
288270  1  0  0  0  0
288307  1  0  0  0  0
289288  2  0  0  0  0
290268  1  0  0  0  0
294276  1  0  0  0  0
295276  1  0  0  0  0
296277  1  0  0  0  0
297278  1  0  0  0  0
298280  1  0  0  0  0
301284  1  0  0  0  0
303286  1  0  0  0  0
308289  1  0  0  0  0
309310  2  0  0  0  0
311309  1  0  0  0  0
311333  1  0  0  0  0
312313  1  0  0  0  0
312311  2  0  0  0  0
313314  2  0  0  0  0
314332  1  0  0  0  0
314315  1  0  0  0  0
315322  1  0  0  0  0
316317  1  0  0  0  0
316315  2  0  0  0  0
317318  2  0  0  0  0
318319  1  0  0  0  0
318321  1  0  0  0  0
319320  1  0  0  0  0
320339  1  0  0  0  0
320338  1  0  0  0  0
321340  1  0  0  0  0
322321  2  0  0  0  0
322341  1  0  0  0  0
323316  1  0  0  0  0
324342  1  0  0  0  0
324323  2  0  0  0  0
325324  1  0  0  0  0
326325  2  0  0  0  0
326327  1  0  0  0  0
327328  2  0  0  0  0
328323  1  0  0  0  0
328345  1  0  0  0  0
329330  1  0  0  0  0
329327  1  0  0  0  0
329346  1  1  0  0  0
330347  1  0  0  0  0
331350  1  0  0  0  0
331329  1  0  0  0  0
332351  1  0  0  0  0
333332  2  0  0  0  0
333352  1  0  0  0  0
334312  1  0  0  0  0
335313  1  0  0  0  0
336317  1  0  0  0  0
337320  1  0  0  0  0
343325  1  0  0  0  0
344326  1  0  0  0  0
348331  1  0  0  0  0
349331  1  0  0  0  0
353355  1  0  0  0  0
353356  1  0  0  0  0
354353  1  0  0  0  0
357353  1  0  0  0  0
358366  1  0  0  0  0
358367  1  0  0  0  0
359358  1  0  0  0  0
359362  1  0  0  0  0
360368  1  0  0  0  0
360359  1  0  0  0  0
361359  1  0  0  0  0
361371  1  0  0  0  0
363362  1  0  0  0  0
363330  1  0  0  0  0
364363  2  0  0  0  0
365358  1  0  0  0  0
369360  1  0  0  0  0
370360  1  0  0  0  0
372361  1  0  0  0  0
373361  1  0  0  0  0
M  END
