mom_tetramer.pdb
 OpenBabel06202514383D

197208  0  0  1  0  0  0  0  0999 V2000
   -1.0990    5.4620   -2.3650 C   0  0  0  0  0  0  0  0  0  0  0  0
   -0.2180    4.3920   -2.0200 O   0  0  0  0  0  0  0  0  0  0  0  0
   -0.8040    3.2810   -1.4920 C   0  0  0  0  0  0  0  0  0  0  0  0
   -2.1580    3.0790   -1.2650 C   0  0  0  0  0  0  0  0  0  0  0  0
   -2.6110    1.8790   -0.7220 C   0  0  0  0  0  0  0  0  0  0  0  0
   -1.7170    0.8490   -0.3920 C   0  0  0  0  0  0  0  0  0  0  0  0
   -2.2620   -0.3630    0.2440 C   0  0  0  0  0  0  0  0  0  0  0  0
   -3.2770   -1.1670   -0.3230 C   0  0  0  0  0  0  0  0  0  0  0  0
   -3.7580   -2.3180    0.3370 C   0  0  0  0  0  0  0  0  0  0  0  0
   -4.7670   -3.2040   -0.3020 C   0  0  0  0  0  0  0  0  0  0  0  0
   -5.3300   -2.9090   -1.3420 O   0  0  0  0  0  0  0  0  0  0  0  0
   -3.2420   -2.6360    1.5860 C   0  0  0  0  0  0  0  0  0  0  0  0
   -2.1870   -1.8980    2.0720 C   0  0  0  0  0  0  0  0  0  0  0  0
   -1.7250   -0.7590    1.4600 C   0  0  0  0  0  0  0  0  0  0  0  0
   -0.3220    1.0620   -0.5960 C   0  0  0  0  0  0  0  0  0  0  0  0
    0.7130    0.0590   -0.2940 C   0  0  0  0  0  0  0  0  0  0  0  0
    1.8420    0.3440    0.5140 C   0  0  0  0  0  0  0  0  0  0  0  0
    2.8330   -0.6270    0.7480 C   0  0  0  0  0  0  0  0  0  0  0  0
    3.9920   -0.4090    1.6910 C   0  0  2  0  0  0  0  0  0  0  0  0
    5.2870   -0.3480    0.8700 C   0  0  0  0  0  0  0  0  0  0  0  0
    4.0730   -1.4730    2.7220 N   0  0  0  0  0  0  0  0  0  0  0  0
    2.7070   -1.8630    0.1350 C   0  0  0  0  0  0  0  0  0  0  0  0
    1.5240   -2.1820   -0.4860 C   0  0  0  0  0  0  0  0  0  0  0  0
    0.5680   -1.2350   -0.7750 C   0  0  0  0  0  0  0  0  0  0  0  0
    0.1040    2.2780   -1.1600 C   0  0  0  0  0  0  0  0  0  0  0  0
   -1.6290    5.8240   -1.4830 H   0  0  0  0  0  0  0  0  0  0  0  0
   -1.7870    5.1540   -3.1530 H   0  0  0  0  0  0  0  0  0  0  0  0
   -0.4800    6.2760   -2.7480 H   0  0  0  0  0  0  0  0  0  0  0  0
   -2.8960    3.8410   -1.4900 H   0  0  0  0  0  0  0  0  0  0  0  0
   -3.6740    1.7560   -0.5200 H   0  0  0  0  0  0  0  0  0  0  0  0
   -3.6890   -0.9080   -1.2980 H   0  0  0  0  0  0  0  0  0  0  0  0
   -3.6030   -3.4670    2.1810 H   0  0  0  0  0  0  0  0  0  0  0  0
   -1.6700   -2.2240    2.9390 H   0  0  0  0  0  0  0  0  0  0  0  0
   -0.9080   -0.2170    1.9340 H   0  0  0  0  0  0  0  0  0  0  0  0
    1.9320    1.3190    0.9800 H   0  0  0  0  0  0  0  0  0  0  0  0
    3.8580    0.5410    2.2240 H   0  0  0  0  0  0  0  0  0  0  0  0
    5.5170   -1.3080    0.3900 H   0  0  0  0  0  0  0  0  0  0  0  0
    5.2090    0.4020    0.0730 H   0  0  0  0  0  0  0  0  0  0  0  0
    6.1430   -0.0880    1.4980 H   0  0  0  0  0  0  0  0  0  0  0  0
    4.8910   -1.2480    3.2740 H   0  0  0  0  0  0  0  0  0  0  0  0
    3.4710   -2.6270    0.2430 H   0  0  0  0  0  0  0  0  0  0  0  0
    1.3320   -3.2050   -0.7110 H   0  0  0  0  0  0  0  0  0  0  0  0
   -0.3050   -1.5320   -1.3490 H   0  0  0  0  0  0  0  0  0  0  0  0
    1.1570    2.4370   -1.3600 H   0  0  0  0  0  0  0  0  0  0  0  0
   -5.8990   -2.8150    7.1730 C   0  0  0  0  0  0  0  0  0  0  0  0
   -5.0710   -3.9560    7.0160 O   0  0  0  0  0  0  0  0  0  0  0  0
   -3.8940   -3.7700    6.3500 C   0  0  0  0  0  0  0  0  0  0  0  0
   -3.4220   -2.5720    5.8370 C   0  0  0  0  0  0  0  0  0  0  0  0
   -2.1630   -2.5210    5.2350 C   0  0  0  0  0  0  0  0  0  0  0  0
   -1.3970   -3.6800    5.0050 C   0  0  0  0  0  0  0  0  0  0  0  0
   -0.1710   -3.6040    4.1500 C   0  0  0  0  0  0  0  0  0  0  0  0
    0.8430   -2.6310    4.3010 C   0  0  0  0  0  0  0  0  0  0  0  0
    2.0040   -2.6340    3.4970 C   0  0  0  0  0  0  0  0  0  0  0  0
    3.0400   -1.5610    3.6600 C   0  0  0  0  0  0  0  0  0  0  0  0
    3.0360   -0.8310    4.6320 O   0  0  0  0  0  0  0  0  0  0  0  0
    2.1770   -3.6580    2.5810 C   0  0  0  0  0  0  0  0  0  0  0  0
    1.1360   -4.5400    2.3380 C   0  0  0  0  0  0  0  0  0  0  0  0
   -0.0260   -4.5170    3.0850 C   0  0  0  0  0  0  0  0  0  0  0  0
   -1.8920   -4.9080    5.5300 C   0  0  0  0  0  0  0  0  0  0  0  0
   -1.1250   -6.1620    5.4690 C   0  0  0  0  0  0  0  0  0  0  0  0
   -1.6680   -7.3890    5.0370 C   0  0  0  0  0  0  0  0  0  0  0  0
   -0.8920   -8.5600    5.0360 C   0  0  0  0  0  0  0  0  0  0  0  0
   -1.3890   -9.8800    4.4990 C   0  0  2  0  0  0  0  0  0  0  0  0
   -1.5420  -10.8540    5.6750 C   0  0  0  0  0  0  0  0  0  0  0  0
   -0.4700  -10.4410    3.4750 N   0  0  0  0  0  0  0  0  0  0  0  0
    0.4150   -8.4920    5.4940 C   0  0  0  0  0  0  0  0  0  0  0  0
    0.9850   -7.2640    5.7060 C   0  0  0  0  0  0  0  0  0  0  0  0
    0.2260   -6.1240    5.7960 C   0  0  0  0  0  0  0  0  0  0  0  0
   -3.1200   -4.9180    6.2160 C   0  0  0  0  0  0  0  0  0  0  0  0
   -6.2580   -2.4610    6.2000 H   0  0  0  0  0  0  0  0  0  0  0  0
   -5.3830   -2.0180    7.7180 H   0  0  0  0  0  0  0  0  0  0  0  0
   -6.7670   -3.1170    7.7650 H   0  0  0  0  0  0  0  0  0  0  0  0
   -4.0000   -1.6540    5.8790 H   0  0  0  0  0  0  0  0  0  0  0  0
   -1.8240   -1.5520    4.8700 H   0  0  0  0  0  0  0  0  0  0  0  0
    0.7310   -1.8620    5.0580 H   0  0  0  0  0  0  0  0  0  0  0  0
    3.0910   -3.7630    2.0090 H   0  0  0  0  0  0  0  0  0  0  0  0
    1.2210   -5.2650    1.5540 H   0  0  0  0  0  0  0  0  0  0  0  0
   -0.7980   -5.2440    2.8520 H   0  0  0  0  0  0  0  0  0  0  0  0
   -2.6950   -7.4270    4.6800 H   0  0  0  0  0  0  0  0  0  0  0  0
   -2.3650   -9.7360    4.0170 H   0  0  0  0  0  0  0  0  0  0  0  0
   -0.5740  -11.0960    6.1350 H   0  0  0  0  0  0  0  0  0  0  0  0
   -2.1760  -10.4240    6.4610 H   0  0  0  0  0  0  0  0  0  0  0  0
   -1.9890  -11.7980    5.3520 H   0  0  0  0  0  0  0  0  0  0  0  0
   -0.8740  -11.3320    3.2160 H   0  0  0  0  0  0  0  0  0  0  0  0
    1.0400   -9.3780    5.5650 H   0  0  0  0  0  0  0  0  0  0  0  0
    2.0450   -7.1870    5.7590 H   0  0  0  0  0  0  0  0  0  0  0  0
    0.7220   -5.1970    6.0710 H   0  0  0  0  0  0  0  0  0  0  0  0
   -3.4750   -5.8400    6.6750 H   0  0  0  0  0  0  0  0  0  0  0  0
    1.9700   -2.7500   -3.9600 C   0  0  0  0  0  0  0  0  0  0  0  0
    2.9110   -3.7900   -3.7080 O   0  0  0  0  0  0  0  0  0  0  0  0
    2.6070   -4.6960   -2.7330 C   0  0  0  0  0  0  0  0  0  0  0  0
    1.3590   -4.9010   -2.1610 C   0  0  0  0  0  0  0  0  0  0  0  0
    1.2190   -5.7430   -1.0480 C   0  0  0  0  0  0  0  0  0  0  0  0
    2.2940   -6.4940   -0.5530 C   0  0  0  0  0  0  0  0  0  0  0  0
    2.1360   -7.3180    0.6750 C   0  0  0  0  0  0  0  0  0  0  0  0
    0.9980   -8.1110    0.9180 C   0  0  0  0  0  0  0  0  0  0  0  0
    0.9040   -8.9470    2.0430 C   0  0  0  0  0  0  0  0  0  0  0  0
   -0.3290   -9.7630    2.2780 C   0  0  0  0  0  0  0  0  0  0  0  0
   -1.1810   -9.8780    1.3970 O   0  0  0  0  0  0  0  0  0  0  0  0
    1.9890   -9.0240    2.9070 C   0  0  0  0  0  0  0  0  0  0  0  0
    3.0440   -8.1440    2.7490 C   0  0  0  0  0  0  0  0  0  0  0  0
    3.1230   -7.2900    1.6660 C   0  0  0  0  0  0  0  0  0  0  0  0
    3.5230   -6.4210   -1.2580 C   0  0  0  0  0  0  0  0  0  0  0  0
    4.6090   -7.3870   -1.0230 C   0  0  0  0  0  0  0  0  0  0  0  0
    5.9320   -6.9850   -0.8050 C   0  0  0  0  0  0  0  0  0  0  0  0
    6.9500   -7.9380   -0.6730 C   0  0  0  0  0  0  0  0  0  0  0  0
    8.3700   -7.4940   -0.3970 C   0  0  2  0  0  0  0  0  0  0  0  0
    9.2250   -7.7840   -1.6330 C   0  0  0  0  0  0  0  0  0  0  0  0
    8.9430   -8.1140    0.8110 N   0  0  0  0  0  0  0  0  0  0  0  0
    6.6300   -9.2970   -0.8130 C   0  0  0  0  0  0  0  0  0  0  0  0
    5.3120   -9.7140   -0.9180 C   0  0  0  0  0  0  0  0  0  0  0  0
    4.3140   -8.7620   -1.0360 C   0  0  0  0  0  0  0  0  0  0  0  0
    3.6700   -5.4830   -2.3020 C   0  0  0  0  0  0  0  0  0  0  0  0
    1.9230   -2.0480   -3.1250 H   0  0  0  0  0  0  0  0  0  0  0  0
    0.9790   -3.1410   -4.2020 H   0  0  0  0  0  0  0  0  0  0  0  0
    2.3210   -2.1850   -4.8280 H   0  0  0  0  0  0  0  0  0  0  0  0
    0.4910   -4.3250   -2.4640 H   0  0  0  0  0  0  0  0  0  0  0  0
    0.2630   -5.7450   -0.5270 H   0  0  0  0  0  0  0  0  0  0  0  0
    0.1730   -8.1010    0.2070 H   0  0  0  0  0  0  0  0  0  0  0  0
    2.0150   -9.7320    3.7260 H   0  0  0  0  0  0  0  0  0  0  0  0
    3.8300   -8.1180    3.4730 H   0  0  0  0  0  0  0  0  0  0  0  0
    3.9870   -6.6250    1.6040 H   0  0  0  0  0  0  0  0  0  0  0  0
    6.1710   -5.9250   -0.7370 H   0  0  0  0  0  0  0  0  0  0  0  0
    8.3830   -6.4100   -0.2180 H   0  0  0  0  0  0  0  0  0  0  0  0
    9.3060   -8.8590   -1.8310 H   0  0  0  0  0  0  0  0  0  0  0  0
    8.7880   -7.3160   -2.5240 H   0  0  0  0  0  0  0  0  0  0  0  0
   10.2400   -7.3940   -1.5120 H   0  0  0  0  0  0  0  0  0  0  0  0
    9.8900   -7.7630    0.8730 H   0  0  0  0  0  0  0  0  0  0  0  0
    7.4110  -10.0500   -0.7750 H   0  0  0  0  0  0  0  0  0  0  0  0
    5.0560  -10.7680   -0.9010 H   0  0  0  0  0  0  0  0  0  0  0  0
    3.2850   -9.1010   -1.1370 H   0  0  0  0  0  0  0  0  0  0  0  0
    4.6240   -5.3910   -2.8180 H   0  0  0  0  0  0  0  0  0  0  0  0
    1.9070   -6.7880    9.0970 C   0  0  0  0  0  0  0  0  0  0  0  0
    2.7150   -7.9600    9.0550 O   0  0  0  0  0  0  0  0  0  0  0  0
    3.5460   -8.1270    7.9840 C   0  0  0  0  0  0  0  0  0  0  0  0
    3.8740   -7.1680    7.0380 C   0  0  0  0  0  0  0  0  0  0  0  0
    4.5870   -7.5280    5.8830 C   0  0  0  0  0  0  0  0  0  0  0  0
    5.0900   -8.8280    5.6900 C   0  0  0  0  0  0  0  0  0  0  0  0
    5.7650   -9.2000    4.4100 C   0  0  0  0  0  0  0  0  0  0  0  0
    6.7000   -8.3460    3.8000 C   0  0  0  0  0  0  0  0  0  0  0  0
    7.4050   -8.7270    2.6500 C   0  0  0  0  0  0  0  0  0  0  0  0
    8.3700   -7.7730    2.0310 C   0  0  0  0  0  0  0  0  0  0  0  0
    8.6960   -6.7390    2.6000 O   0  0  0  0  0  0  0  0  0  0  0  0
    7.2000   -9.9990    2.1230 C   0  0  0  0  0  0  0  0  0  0  0  0
    6.1700  -10.7890    2.6030 C   0  0  0  0  0  0  0  0  0  0  0  0
    5.4580  -10.4050    3.7350 C   0  0  0  0  0  0  0  0  0  0  0  0
    4.9310   -9.7410    6.7600 C   0  0  0  0  0  0  0  0  0  0  0  0
    5.6850  -11.0030    6.8120 C   0  0  0  0  0  0  0  0  0  0  0  0
    5.0550  -12.2280    7.0490 C   0  0  0  0  0  0  0  0  0  0  0  0
    5.7960  -13.4160    7.0930 C   0  0  0  0  0  0  0  0  0  0  0  0
    5.0790  -14.7420    7.3140 C   0  0  2  0  0  0  0  0  0  0  0  0
    5.4350  -15.2550    8.7070 C   0  0  0  0  0  0  0  0  0  0  0  0
    5.4070  -15.6580    6.2330 N   0  0  0  0  0  0  0  0  0  0  0  0
    7.1850  -13.3690    6.8790 C   0  0  0  0  0  0  0  0  0  0  0  0
    7.8240  -12.1610    6.6330 C   0  0  0  0  0  0  0  0  0  0  0  0
    7.0790  -10.9890    6.6180 C   0  0  0  0  0  0  0  0  0  0  0  0
    4.1130   -9.3920    7.8590 C   0  0  0  0  0  0  0  0  0  0  0  0
    1.1390   -6.8030    8.3220 H   0  0  0  0  0  0  0  0  0  0  0  0
    2.5050   -5.8750    9.0410 H   0  0  0  0  0  0  0  0  0  0  0  0
    1.3800   -6.7790   10.0560 H   0  0  0  0  0  0  0  0  0  0  0  0
    3.4820   -6.1570    7.0920 H   0  0  0  0  0  0  0  0  0  0  0  0
    4.6810   -6.7800    5.0970 H   0  0  0  0  0  0  0  0  0  0  0  0
    6.8980   -7.3680    4.2360 H   0  0  0  0  0  0  0  0  0  0  0  0
    7.8060  -10.3670    1.3050 H   0  0  0  0  0  0  0  0  0  0  0  0
    5.9230  -11.7060    2.0800 H   0  0  0  0  0  0  0  0  0  0  0  0
    4.6690  -11.0650    4.0930 H   0  0  0  0  0  0  0  0  0  0  0  0
    3.9730  -12.2650    7.1610 H   0  0  0  0  0  0  0  0  0  0  0  0
    3.9920  -14.5880    7.2780 H   0  0  0  0  0  0  0  0  0  0  0  0
    6.5100  -15.4360    8.8240 H   0  0  0  0  0  0  0  0  0  0  0  0
    5.1460  -14.5170    9.4660 H   0  0  0  0  0  0  0  0  0  0  0  0
    4.9090  -16.1880    8.9350 H   0  0  0  0  0  0  0  0  0  0  0  0
    5.4850  -16.6530    6.4030 H   0  0  0  0  0  0  0  0  0  0  0  0
    7.7730  -14.2840    6.8780 H   0  0  0  0  0  0  0  0  0  0  0  0
    8.8920  -12.1250    6.4410 H   0  0  0  0  0  0  0  0  0  0  0  0
    7.5920  -10.0480    6.4230 H   0  0  0  0  0  0  0  0  0  0  0  0
    3.9410  -10.1130    8.6560 H   0  0  0  0  0  0  0  0  0  0  0  0
   -4.1560   -5.3920    0.4040 C   0  0  0  0  0  0  0  0  0  0  0  0
   -5.0890   -4.3010    0.4390 O   0  0  0  0  0  0  0  0  0  0  0  0
   -3.8990   -5.6580   -0.6240 H   0  0  0  0  0  0  0  0  0  0  0  0
   -4.6280   -6.2500    0.8930 H   0  0  0  0  0  0  0  0  0  0  0  0
   -3.2430   -5.1680    0.9640 H   0  0  0  0  0  0  0  0  0  0  0  0
    6.4000  -16.6370    1.8080 C   0  0  0  0  0  0  0  0  0  0  0  0
    5.4490  -15.7460    2.6180 C   0  0  0  0  0  0  0  0  0  0  0  0
    5.8140  -14.2920    2.2900 C   0  0  0  0  0  0  0  0  0  0  0  0
    4.0050  -16.0510    2.2090 C   0  0  0  0  0  0  0  0  0  0  0  0
    5.6490  -16.0850    4.0250 O   0  0  0  0  0  0  0  0  0  0  0  0
    5.0260  -15.3180    4.9570 C   0  0  0  0  0  0  0  0  0  0  0  0
    4.2440  -14.4110    4.7130 O   0  0  0  0  0  0  0  0  0  0  0  0
    6.2850  -16.4680    0.7310 H   0  0  0  0  0  0  0  0  0  0  0  0
    7.4450  -16.4360    2.0700 H   0  0  0  0  0  0  0  0  0  0  0  0
    6.2180  -17.6960    2.0140 H   0  0  0  0  0  0  0  0  0  0  0  0
    6.8230  -14.0410    2.6370 H   0  0  0  0  0  0  0  0  0  0  0  0
    5.1270  -13.5870    2.7620 H   0  0  0  0  0  0  0  0  0  0  0  0
    5.7630  -14.1000    1.2110 H   0  0  0  0  0  0  0  0  0  0  0  0
    3.7300  -17.0670    2.5090 H   0  0  0  0  0  0  0  0  0  0  0  0
    3.2930  -15.3760    2.6950 H   0  0  0  0  0  0  0  0  0  0  0  0
    3.8650  -15.9470    1.1280 H   0  0  0  0  0  0  0  0  0  0  0  0
  1  2  1  0  0  0  0
  1 26  1  0  0  0  0
  2  3  1  0  0  0  0
  3  4  2  0  0  0  0
  3 25  1  0  0  0  0
  4  5  1  0  0  0  0
  5 30  1  0  0  0  0
  5  6  2  0  0  0  0
  6  7  1  0  0  0  0
  7 14  1  0  0  0  0
  8  7  2  0  0  0  0
  8  9  1  0  0  0  0
  9 12  2  0  0  0  0
 10  9  1  0  0  0  0
 10178  1  0  0  0  0
 11 10  2  0  0  0  0
 12 13  1  0  0  0  0
 12 32  1  0  0  0  0
 13 33  1  0  0  0  0
 14 34  1  0  0  0  0
 14 13  2  0  0  0  0
 15  6  1  0  0  0  0
 15 16  1  0  0  0  0
 16 17  1  0  0  0  0
 17 18  2  0  0  0  0
 17 35  1  0  0  0  0
 18 19  1  0  0  0  0
 19 36  1  1  0  0  0
 19 21  1  0  0  0  0
 20 39  1  0  0  0  0
 20 19  1  0  0  0  0
 21 40  1  0  0  0  0
 21 54  1  0  0  0  0
 22 41  1  0  0  0  0
 22 18  1  0  0  0  0
 23 22  2  0  0  0  0
 24 23  1  0  0  0  0
 24 16  2  0  0  0  0
 25 15  2  0  0  0  0
 27  1  1  0  0  0  0
 28  1  1  0  0  0  0
 29  4  1  0  0  0  0
 31  8  1  0  0  0  0
 37 20  1  0  0  0  0
 38 20  1  0  0  0  0
 42 23  1  0  0  0  0
 43 24  1  0  0  0  0
 44 25  1  0  0  0  0
 45 71  1  0  0  0  0
 45 72  1  0  0  0  0
 46 45  1  0  0  0  0
 47 46  1  0  0  0  0
 48 73  1  0  0  0  0
 48 47  2  0  0  0  0
 49 48  1  0  0  0  0
 50 49  2  0  0  0  0
 50 59  1  0  0  0  0
 51 52  1  0  0  0  0
 51 50  1  0  0  0  0
 52 75  1  0  0  0  0
 53 54  1  0  0  0  0
 53 52  2  0  0  0  0
 54 55  2  0  0  0  0
 56 53  1  0  0  0  0
 57 56  2  0  0  0  0
 57 58  1  0  0  0  0
 58 51  2  0  0  0  0
 59 69  2  0  0  0  0
 60 59  1  0  0  0  0
 60 68  1  0  0  0  0
 61 60  2  0  0  0  0
 62 61  1  0  0  0  0
 62 66  2  0  0  0  0
 63 80  1  6  0  0  0
 63 62  1  0  0  0  0
 63 64  1  0  0  0  0
 64 81  1  0  0  0  0
 64 82  1  0  0  0  0
 65 63  1  0  0  0  0
 66 85  1  0  0  0  0
 66 67  1  0  0  0  0
 67 86  1  0  0  0  0
 67 68  2  0  0  0  0
 68 87  1  0  0  0  0
 69 47  1  0  0  0  0
 69 88  1  0  0  0  0
 70 45  1  0  0  0  0
 74 49  1  0  0  0  0
 76 56  1  0  0  0  0
 77 57  1  0  0  0  0
 78 58  1  0  0  0  0
 79 61  1  0  0  0  0
 83 64  1  0  0  0  0
 84 65  1  0  0  0  0
 89 90  1  0  0  0  0
 89114  1  0  0  0  0
 90 91  1  0  0  0  0
 91113  2  0  0  0  0
 91 92  1  0  0  0  0
 92 93  2  0  0  0  0
 93 94  1  0  0  0  0
 93118  1  0  0  0  0
 94 95  1  0  0  0  0
 95 96  2  0  0  0  0
 95102  1  0  0  0  0
 96 97  1  0  0  0  0
 97 98  1  0  0  0  0
 97100  2  0  0  0  0
 98 65  1  0  0  0  0
 99 98  2  0  0  0  0
100120  1  0  0  0  0
101100  1  0  0  0  0
101121  1  0  0  0  0
102101  2  0  0  0  0
103104  1  0  0  0  0
103 94  2  0  0  0  0
104105  1  0  0  0  0
105123  1  0  0  0  0
105106  2  0  0  0  0
106107  1  0  0  0  0
107124  1  1  0  0  0
107109  1  0  0  0  0
108127  1  0  0  0  0
108107  1  0  0  0  0
109128  1  0  0  0  0
109142  1  0  0  0  0
110129  1  0  0  0  0
110106  1  0  0  0  0
111130  1  0  0  0  0
111110  2  0  0  0  0
112104  2  0  0  0  0
112111  1  0  0  0  0
113103  1  0  0  0  0
115 89  1  0  0  0  0
116 89  1  0  0  0  0
117 92  1  0  0  0  0
119 96  1  0  0  0  0
122102  1  0  0  0  0
125108  1  0  0  0  0
126108  1  0  0  0  0
131112  1  0  0  0  0
132113  1  0  0  0  0
133160  1  0  0  0  0
134133  1  0  0  0  0
135134  1  0  0  0  0
136161  1  0  0  0  0
136135  2  0  0  0  0
137136  1  0  0  0  0
138137  2  0  0  0  0
138147  1  0  0  0  0
139138  1  0  0  0  0
140163  1  0  0  0  0
140139  1  0  0  0  0
141140  2  0  0  0  0
142143  2  0  0  0  0
142141  1  0  0  0  0
144145  2  0  0  0  0
144141  1  0  0  0  0
145146  1  0  0  0  0
146166  1  0  0  0  0
146139  2  0  0  0  0
147148  1  0  0  0  0
147157  2  0  0  0  0
148149  1  0  0  0  0
149150  2  0  0  0  0
149167  1  0  0  0  0
150151  1  0  0  0  0
151168  1  6  0  0  0
151152  1  0  0  0  0
152169  1  0  0  0  0
152171  1  0  0  0  0
152170  1  0  0  0  0
153172  1  0  0  0  0
153151  1  0  0  0  0
154150  1  0  0  0  0
155154  2  0  0  0  0
156155  1  0  0  0  0
156148  2  0  0  0  0
157135  1  0  0  0  0
157176  1  0  0  0  0
158133  1  0  0  0  0
159133  1  0  0  0  0
162137  1  0  0  0  0
164144  1  0  0  0  0
165145  1  0  0  0  0
173154  1  0  0  0  0
174155  1  0  0  0  0
175156  1  0  0  0  0
177178  1  0  0  0  0
177180  1  0  0  0  0
177181  1  0  0  0  0
179177  1  0  0  0  0
182191  1  0  0  0  0
182190  1  0  0  0  0
182183  1  0  0  0  0
183186  1  0  0  0  0
184183  1  0  0  0  0
184192  1  0  0  0  0
184193  1  0  0  0  0
185195  1  0  0  0  0
185183  1  0  0  0  0
185196  1  0  0  0  0
186187  1  0  0  0  0
187153  1  0  0  0  0
188187  2  0  0  0  0
189182  1  0  0  0  0
194184  1  0  0  0  0
197185  1  0  0  0  0
M  END
