mom_trimer.pdb
 OpenBabel09272416213D

153161  0  0  1  0  0  0  0  0999 V2000
   -2.6400    5.4710    0.8760 C   0  0  0  0  0  0  0  0  0  0  0  0
   -1.5150    4.6520    0.5820 O   0  0  0  0  0  0  0  0  0  0  0  0
   -1.7210    3.3060    0.4620 C   0  0  0  0  0  0  0  0  0  0  0  0
   -2.9300    2.6390    0.6140 C   0  0  0  0  0  0  0  0  0  0  0  0
   -2.9830    1.2440    0.4800 C   0  0  0  0  0  0  0  0  0  0  0  0
   -1.8350    0.4830    0.1790 C   0  0  0  0  0  0  0  0  0  0  0  0
   -1.9500   -0.9960    0.1030 C   0  0  0  0  0  0  0  0  0  0  0  0
   -2.8350   -1.6170   -0.7970 C   0  0  0  0  0  0  0  0  0  0  0  0
   -2.9140   -3.0160   -0.8810 C   0  0  0  0  0  0  0  0  0  0  0  0
   -3.9550   -3.5980   -1.7780 C   0  0  0  0  0  0  0  0  0  0  0  0
   -4.7250   -2.9170   -2.4370 O   0  0  0  0  0  0  0  0  0  0  0  0
   -2.1080   -3.8150   -0.0730 C   0  0  0  0  0  0  0  0  0  0  0  0
   -1.2310   -3.2150    0.8240 C   0  0  0  0  0  0  0  0  0  0  0  0
   -1.1590   -1.8260    0.9150 C   0  0  0  0  0  0  0  0  0  0  0  0
   -0.6050    1.1690   -0.0080 C   0  0  0  0  0  0  0  0  0  0  0  0
    0.6360    0.4660   -0.3900 C   0  0  0  0  0  0  0  0  0  0  0  0
    1.7980    0.5490    0.4110 C   0  0  0  0  0  0  0  0  0  0  0  0
    2.9300   -0.2200    0.1130 C   0  0  0  0  0  0  0  0  0  0  0  0
    4.2150   -0.1020    0.9200 C   0  0  1  0  0  0  0  0  0  0  0  0
    4.5170   -1.4010    1.6690 C   0  0  0  0  0  0  0  0  0  0  0  0
    5.3730    0.3670    0.1240 N   0  0  0  0  0  0  0  0  0  0  0  0
    2.8470   -1.1240   -0.9530 C   0  0  0  0  0  0  0  0  0  0  0  0
    1.7540   -1.1360   -1.8200 C   0  0  0  0  0  0  0  0  0  0  0  0
    0.6610   -0.3370   -1.5370 C   0  0  0  0  0  0  0  0  0  0  0  0
   -0.5790    2.5760    0.1540 C   0  0  0  0  0  0  0  0  0  0  0  0
   -3.0610    5.2300    1.8580 H   0  0  0  0  0  0  0  0  0  0  0  0
   -3.4010    5.4020    0.0910 H   0  0  0  0  0  0  0  0  0  0  0  0
   -2.2940    6.5090    0.9100 H   0  0  0  0  0  0  0  0  0  0  0  0
   -3.8490    3.1670    0.8470 H   0  0  0  0  0  0  0  0  0  0  0  0
   -3.9400    0.7460    0.6240 H   0  0  0  0  0  0  0  0  0  0  0  0
   -3.4700   -1.0040   -1.4350 H   0  0  0  0  0  0  0  0  0  0  0  0
   -2.1570   -4.9010   -0.1120 H   0  0  0  0  0  0  0  0  0  0  0  0
   -0.6020   -3.8320    1.4650 H   0  0  0  0  0  0  0  0  0  0  0  0
   -0.4540   -1.3860    1.6190 H   0  0  0  0  0  0  0  0  0  0  0  0
    1.7970    1.1960    1.2840 H   0  0  0  0  0  0  0  0  0  0  0  0
    4.0730    0.6870    1.6760 H   0  0  0  0  0  0  0  0  0  0  0  0
    5.3980   -1.2810    2.3090 H   0  0  0  0  0  0  0  0  0  0  0  0
    3.6720   -1.7060    2.2940 H   0  0  0  0  0  0  0  0  0  0  0  0
    4.7250   -2.2240    0.9770 H   0  0  0  0  0  0  0  0  0  0  0  0
    6.0810    0.6400    0.7950 H   0  0  0  0  0  0  0  0  0  0  0  0
    3.6690   -1.7880   -1.1810 H   0  0  0  0  0  0  0  0  0  0  0  0
    1.7780   -1.7660   -2.7030 H   0  0  0  0  0  0  0  0  0  0  0  0
   -0.2030   -0.3850   -2.2030 H   0  0  0  0  0  0  0  0  0  0  0  0
    0.3640    3.1050    0.0200 H   0  0  0  0  0  0  0  0  0  0  0  0
    7.1240   -7.0650   -7.6990 C   0  0  0  0  0  0  0  0  0  0  0  0
    7.3330   -5.6830   -7.9620 O   0  0  0  0  0  0  0  0  0  0  0  0
    6.9020   -4.7810   -7.0290 C   0  0  0  0  0  0  0  0  0  0  0  0
    6.2630   -5.0720   -5.8300 C   0  0  0  0  0  0  0  0  0  0  0  0
    5.8630   -4.0340   -4.9720 C   0  0  0  0  0  0  0  0  0  0  0  0
    6.0920   -2.6800   -5.2880 C   0  0  0  0  0  0  0  0  0  0  0  0
    5.6050   -1.6140   -4.3690 C   0  0  0  0  0  0  0  0  0  0  0  0
    6.0320   -1.5370   -3.0300 C   0  0  0  0  0  0  0  0  0  0  0  0
    5.6140   -0.4850   -2.1910 C   0  0  0  0  0  0  0  0  0  0  0  0
    5.9970   -0.5180   -0.7450 C   0  0  0  0  0  0  0  0  0  0  0  0
    6.8370   -1.3080   -0.3280 O   0  0  0  0  0  0  0  0  0  0  0  0
    4.7690    0.5090   -2.6960 C   0  0  0  0  0  0  0  0  0  0  0  0
    4.3090    0.4320   -4.0080 C   0  0  0  0  0  0  0  0  0  0  0  0
    4.7220   -0.6190   -4.8310 C   0  0  0  0  0  0  0  0  0  0  0  0
    6.7760   -2.3850   -6.5010 C   0  0  0  0  0  0  0  0  0  0  0  0
    7.1280   -1.0030   -6.8840 C   0  0  0  0  0  0  0  0  0  0  0  0
    6.6900   -0.4400   -8.0990 C   0  0  0  0  0  0  0  0  0  0  0  0
    6.9330    0.9090   -8.4000 C   0  0  0  0  0  0  0  0  0  0  0  0
    6.5340    1.5050   -9.7360 C   0  0  1  0  0  0  0  0  0  0  0  0
    5.4310    2.5560   -9.5630 C   0  0  0  0  0  0  0  0  0  0  0  0
    7.6750    2.0250  -10.5250 N   0  0  0  0  0  0  0  0  0  0  0  0
    7.5510    1.6950   -7.4180 C   0  0  0  0  0  0  0  0  0  0  0  0
    8.0960    1.1360   -6.2720 C   0  0  0  0  0  0  0  0  0  0  0  0
    7.8860   -0.2080   -6.0070 C   0  0  0  0  0  0  0  0  0  0  0  0
    7.1550   -3.4450   -7.3510 C   0  0  0  0  0  0  0  0  0  0  0  0
    6.0570   -7.3010   -7.6200 H   0  0  0  0  0  0  0  0  0  0  0  0
    7.6680   -7.3880   -6.8050 H   0  0  0  0  0  0  0  0  0  0  0  0
    7.5230   -7.6270   -8.5500 H   0  0  0  0  0  0  0  0  0  0  0  0
    6.0530   -6.0930   -5.5300 H   0  0  0  0  0  0  0  0  0  0  0  0
    5.3510   -4.2940   -4.0480 H   0  0  0  0  0  0  0  0  0  0  0  0
    6.6890   -2.3070   -2.6290 H   0  0  0  0  0  0  0  0  0  0  0  0
    4.3890    1.2990   -2.0520 H   0  0  0  0  0  0  0  0  0  0  0  0
    3.6130    1.1770   -4.3820 H   0  0  0  0  0  0  0  0  0  0  0  0
    4.3620   -0.6420   -5.8580 H   0  0  0  0  0  0  0  0  0  0  0  0
    6.1240   -1.0570   -8.7960 H   0  0  0  0  0  0  0  0  0  0  0  0
    6.1230    0.7020  -10.3610 H   0  0  0  0  0  0  0  0  0  0  0  0
    5.0730    2.9040  -10.5370 H   0  0  0  0  0  0  0  0  0  0  0  0
    4.5820    2.1490   -9.0050 H   0  0  0  0  0  0  0  0  0  0  0  0
    5.7930    3.4320   -9.0130 H   0  0  0  0  0  0  0  0  0  0  0  0
    7.3320    2.1620  -11.4670 H   0  0  0  0  0  0  0  0  0  0  0  0
    7.6830    2.7610   -7.5690 H   0  0  0  0  0  0  0  0  0  0  0  0
    8.6810    1.7520   -5.5950 H   0  0  0  0  0  0  0  0  0  0  0  0
    8.2770   -0.6200   -5.0810 H   0  0  0  0  0  0  0  0  0  0  0  0
    7.6780   -3.2250   -8.2810 H   0  0  0  0  0  0  0  0  0  0  0  0
   12.3250    9.9680   -4.6590 C   0  0  0  0  0  0  0  0  0  0  0  0
   13.1250    9.1010   -5.4640 O   0  0  0  0  0  0  0  0  0  0  0  0
   12.5280    7.9940   -6.0010 C   0  0  0  0  0  0  0  0  0  0  0  0
   11.2000    7.6150   -5.8500 C   0  0  0  0  0  0  0  0  0  0  0  0
   10.7330    6.4380   -6.4520 C   0  0  0  0  0  0  0  0  0  0  0  0
   11.5750    5.6120   -7.2250 C   0  0  0  0  0  0  0  0  0  0  0  0
   11.0350    4.3580   -7.8080 C   0  0  0  0  0  0  0  0  0  0  0  0
    9.9380    4.3670   -8.6910 C   0  0  0  0  0  0  0  0  0  0  0  0
    9.4890    3.1810   -9.3010 C   0  0  0  0  0  0  0  0  0  0  0  0
    8.2630    3.2270  -10.1550 C   0  0  0  0  0  0  0  0  0  0  0  0
    7.7830    4.2930  -10.5260 O   0  0  0  0  0  0  0  0  0  0  0  0
   10.1340    1.9710   -9.0190 C   0  0  0  0  0  0  0  0  0  0  0  0
   11.1920    1.9380   -8.1150 C   0  0  0  0  0  0  0  0  0  0  0  0
   11.6380    3.1190   -7.5230 C   0  0  0  0  0  0  0  0  0  0  0  0
   12.9290    6.0130   -7.4050 C   0  0  0  0  0  0  0  0  0  0  0  0
   13.8700    5.2610   -8.2700 C   0  0  0  0  0  0  0  0  0  0  0  0
   15.0920    4.7490   -7.7790 C   0  0  0  0  0  0  0  0  0  0  0  0
   15.9470    3.9810   -8.5970 C   0  0  0  0  0  0  0  0  0  0  0  0
   17.2660    3.4140   -8.0680 C   0  0  1  0  0  0  0  0  0  0  0  0
   17.1800    1.9080   -7.7780 C   0  0  0  0  0  0  0  0  0  0  0  0
   18.3900    3.7770   -8.9550 N   0  0  0  0  0  0  0  0  0  0  0  0
   15.5390    3.7360   -9.9170 C   0  0  0  0  0  0  0  0  0  0  0  0
   14.3520    4.2500  -10.4300 C   0  0  0  0  0  0  0  0  0  0  0  0
   13.5330    5.0110   -9.6120 C   0  0  0  0  0  0  0  0  0  0  0  0
   13.3770    7.1950   -6.7760 C   0  0  0  0  0  0  0  0  0  0  0  0
   11.9400    9.4480   -3.7790 H   0  0  0  0  0  0  0  0  0  0  0  0
   11.5170   10.4140   -5.2460 H   0  0  0  0  0  0  0  0  0  0  0  0
   12.9720   10.7780   -4.3130 H   0  0  0  0  0  0  0  0  0  0  0  0
   10.4990    8.2090   -5.2720 H   0  0  0  0  0  0  0  0  0  0  0  0
    9.6910    6.1560   -6.3030 H   0  0  0  0  0  0  0  0  0  0  0  0
    9.4240    5.3030   -8.9050 H   0  0  0  0  0  0  0  0  0  0  0  0
    9.7650    1.0340   -9.4290 H   0  0  0  0  0  0  0  0  0  0  0  0
   11.6570    0.9900   -7.8590 H   0  0  0  0  0  0  0  0  0  0  0  0
   12.4870    3.0690   -6.8430 H   0  0  0  0  0  0  0  0  0  0  0  0
   15.3610    4.9350   -6.7400 H   0  0  0  0  0  0  0  0  0  0  0  0
   17.4770    3.9110   -7.1090 H   0  0  0  0  0  0  0  0  0  0  0  0
   18.1250    1.5550   -7.3510 H   0  0  0  0  0  0  0  0  0  0  0  0
   16.3650    1.6700   -7.0910 H   0  0  0  0  0  0  0  0  0  0  0  0
   16.9850    1.3130   -8.6750 H   0  0  0  0  0  0  0  0  0  0  0  0
   19.2470    4.0530   -8.4850 H   0  0  0  0  0  0  0  0  0  0  0  0
   16.1370    3.1310  -10.5860 H   0  0  0  0  0  0  0  0  0  0  0  0
   14.0740    4.0410  -11.4560 H   0  0  0  0  0  0  0  0  0  0  0  0
   12.5970    5.3800  -10.0250 H   0  0  0  0  0  0  0  0  0  0  0  0
   14.4070    7.5190   -6.9130 H   0  0  0  0  0  0  0  0  0  0  0  0
   -5.3730   -5.4200   -1.6470 C   0  0  0  0  0  0  0  0  0  0  0  0
   -4.0330   -4.9380   -1.5920 O   0  0  0  0  0  0  0  0  0  0  0  0
   -5.8530   -5.1540   -0.7000 H   0  0  0  0  0  0  0  0  0  0  0  0
   -5.3590   -6.5100   -1.7300 H   0  0  0  0  0  0  0  0  0  0  0  0
   -5.9420   -5.0090   -2.4870 H   0  0  0  0  0  0  0  0  0  0  0  0
   19.9680    4.4400  -13.2780 C   0  0  0  0  0  0  0  0  0  0  0  0
   19.2820    3.3660  -12.4250 C   0  0  0  0  0  0  0  0  0  0  0  0
   17.8960    3.0910  -13.0540 C   0  0  0  0  0  0  0  0  0  0  0  0
   20.1560    2.1070  -12.4440 C   0  0  0  0  0  0  0  0  0  0  0  0
   19.2030    3.9120  -11.0720 O   0  0  0  0  0  0  0  0  0  0  0  0
   18.6060    3.1310  -10.1260 C   0  0  0  0  0  0  0  0  0  0  0  0
   18.2130    1.9900  -10.3570 O   0  0  0  0  0  0  0  0  0  0  0  0
   20.1290    4.0880  -14.3040 H   0  0  0  0  0  0  0  0  0  0  0  0
   19.3700    5.3580  -13.3240 H   0  0  0  0  0  0  0  0  0  0  0  0
   20.9390    4.7130  -12.8520 H   0  0  0  0  0  0  0  0  0  0  0  0
   17.2470    3.9730  -13.0030 H   0  0  0  0  0  0  0  0  0  0  0  0
   17.3580    2.2770  -12.5570 H   0  0  0  0  0  0  0  0  0  0  0  0
   17.9940    2.7990  -14.1070 H   0  0  0  0  0  0  0  0  0  0  0  0
   21.0960    2.2890  -11.9120 H   0  0  0  0  0  0  0  0  0  0  0  0
   19.6780    1.2560  -11.9510 H   0  0  0  0  0  0  0  0  0  0  0  0
   20.3790    1.7890  -13.4670 H   0  0  0  0  0  0  0  0  0  0  0  0
  1 28  1  0  0  0  0
  1 26  1  0  0  0  0
  2  1  1  0  0  0  0
  3  2  1  0  0  0  0
  3  4  1  0  0  0  0
  4 29  1  0  0  0  0
  5  4  2  0  0  0  0
  5 30  1  0  0  0  0
  6  5  1  0  0  0  0
  7  6  1  0  0  0  0
  7 14  1  0  0  0  0
  8  7  2  0  0  0  0
  9  8  1  0  0  0  0
  9 12  2  0  0  0  0
 10134  1  0  0  0  0
 10  9  1  0  0  0  0
 11 10  2  0  0  0  0
 12 13  1  0  0  0  0
 13 14  2  0  0  0  0
 13 33  1  0  0  0  0
 14 34  1  0  0  0  0
 15 25  1  0  0  0  0
 15  6  2  0  0  0  0
 16 15  1  0  0  0  0
 16 17  1  0  0  0  0
 17 35  1  0  0  0  0
 18 17  2  0  0  0  0
 18 19  1  0  0  0  0
 19 20  1  0  0  0  0
 19 36  1  1  0  0  0
 20 38  1  0  0  0  0
 20 37  1  0  0  0  0
 21 40  1  0  0  0  0
 21 19  1  0  0  0  0
 22 18  1  0  0  0  0
 23 24  1  0  0  0  0
 23 22  2  0  0  0  0
 24 16  2  0  0  0  0
 25  3  2  0  0  0  0
 27  1  1  0  0  0  0
 31  8  1  0  0  0  0
 32 12  1  0  0  0  0
 39 20  1  0  0  0  0
 41 22  1  0  0  0  0
 42 23  1  0  0  0  0
 43 24  1  0  0  0  0
 44 25  1  0  0  0  0
 45 70  1  0  0  0  0
 45 71  1  0  0  0  0
 46 45  1  0  0  0  0
 46 47  1  0  0  0  0
 47 48  1  0  0  0  0
 48 73  1  0  0  0  0
 48 49  2  0  0  0  0
 49 74  1  0  0  0  0
 50 49  1  0  0  0  0
 50 51  1  0  0  0  0
 51 52  1  0  0  0  0
 52 75  1  0  0  0  0
 52 53  2  0  0  0  0
 53 54  1  0  0  0  0
 54 55  2  0  0  0  0
 54 21  1  0  0  0  0
 56 53  1  0  0  0  0
 56 76  1  0  0  0  0
 57 56  2  0  0  0  0
 58 51  2  0  0  0  0
 58 57  1  0  0  0  0
 59 50  2  0  0  0  0
 60 59  1  0  0  0  0
 60 68  1  0  0  0  0
 61 60  2  0  0  0  0
 62 61  1  0  0  0  0
 62 66  2  0  0  0  0
 63 80  1  6  0  0  0
 63 64  1  0  0  0  0
 63 62  1  0  0  0  0
 64 83  1  0  0  0  0
 64 82  1  0  0  0  0
 65 98  1  0  0  0  0
 65 63  1  0  0  0  0
 66 67  1  0  0  0  0
 67 68  2  0  0  0  0
 67 86  1  0  0  0  0
 68 87  1  0  0  0  0
 69 47  2  0  0  0  0
 69 59  1  0  0  0  0
 72 45  1  0  0  0  0
 77 57  1  0  0  0  0
 78 58  1  0  0  0  0
 79 61  1  0  0  0  0
 81 64  1  0  0  0  0
 84 65  1  0  0  0  0
 85 66  1  0  0  0  0
 88 69  1  0  0  0  0
 89116  1  0  0  0  0
 89114  1  0  0  0  0
 90 89  1  0  0  0  0
 91 92  1  0  0  0  0
 91 90  1  0  0  0  0
 92117  1  0  0  0  0
 93118  1  0  0  0  0
 93 92  2  0  0  0  0
 94 93  1  0  0  0  0
 95102  1  0  0  0  0
 95 94  1  0  0  0  0
 96 95  2  0  0  0  0
 97100  2  0  0  0  0
 97 96  1  0  0  0  0
 98 97  1  0  0  0  0
 99 98  2  0  0  0  0
100101  1  0  0  0  0
101121  1  0  0  0  0
101102  2  0  0  0  0
102122  1  0  0  0  0
103 94  2  0  0  0  0
103113  1  0  0  0  0
104105  1  0  0  0  0
104103  1  0  0  0  0
105123  1  0  0  0  0
106107  1  0  0  0  0
106105  2  0  0  0  0
107108  1  0  0  0  0
107124  1  1  0  0  0
108125  1  0  0  0  0
108126  1  0  0  0  0
109128  1  0  0  0  0
109107  1  0  0  0  0
110106  1  0  0  0  0
111110  2  0  0  0  0
111112  1  0  0  0  0
112104  2  0  0  0  0
113 91  2  0  0  0  0
115 89  1  0  0  0  0
119 96  1  0  0  0  0
120100  1  0  0  0  0
127108  1  0  0  0  0
129110  1  0  0  0  0
130111  1  0  0  0  0
131112  1  0  0  0  0
132113  1  0  0  0  0
133134  1  0  0  0  0
133135  1  0  0  0  0
136133  1  0  0  0  0
137133  1  0  0  0  0
138147  1  0  0  0  0
138139  1  0  0  0  0
139142  1  0  0  0  0
140148  1  0  0  0  0
140149  1  0  0  0  0
140139  1  0  0  0  0
141139  1  0  0  0  0
141152  1  0  0  0  0
141151  1  0  0  0  0
142143  1  0  0  0  0
143109  1  0  0  0  0
144143  2  0  0  0  0
145138  1  0  0  0  0
146138  1  0  0  0  0
150140  1  0  0  0  0
153141  1  0  0  0  0
M  END
