pmp_tetramer.pdb
 OpenBabel11202514063D

197208  0  0  1  0  0  0  0  0999 V2000
   -0.1090    4.5290   -1.0440 C   0  0  0  0  0  0  0  0  0  0  0  0
   -0.1290    3.7060    0.1340 O   0  0  0  0  0  0  0  0  0  0  0  0
    0.0620    2.3610   -0.0190 C   0  0  0  0  0  0  0  0  0  0  0  0
    1.0460    1.6840    0.7050 C   0  0  0  0  0  0  0  0  0  0  0  0
    1.2730    0.3050    0.5890 C   0  0  0  0  0  0  0  0  0  0  0  0
    2.5340   -0.3200    1.0810 C   0  0  0  0  0  0  0  0  0  0  0  0
    3.7570   -0.1390    0.3960 C   0  0  0  0  0  0  0  0  0  0  0  0
    4.9570   -0.7230    0.8130 C   0  0  0  0  0  0  0  0  0  0  0  0
    4.9610   -1.5670    1.9190 C   0  0  0  0  0  0  0  0  0  0  0  0
    6.2370   -2.2730    2.2270 C   0  0  0  0  0  0  0  0  0  0  0  0
    7.2980   -2.0190    1.6780 O   0  0  0  0  0  0  0  0  0  0  0  0
    3.7680   -1.7640    2.6240 C   0  0  0  0  0  0  0  0  0  0  0  0
    2.5720   -1.1390    2.2120 C   0  0  0  0  0  0  0  0  0  0  0  0
    0.2650   -0.4290   -0.0490 C   0  0  0  0  0  0  0  0  0  0  0  0
   -0.8240    0.2030   -0.7040 C   0  0  0  0  0  0  0  0  0  0  0  0
   -1.9900   -0.5360   -1.2550 C   0  0  0  0  0  0  0  0  0  0  0  0
   -2.1210   -1.9300   -1.2110 C   0  0  0  0  0  0  0  0  0  0  0  0
   -3.3450   -2.5530   -1.5120 C   0  0  0  0  0  0  0  0  0  0  0  0
   -4.4630   -1.8000   -1.9010 C   0  0  0  0  0  0  0  0  0  0  0  0
   -5.8700   -2.3630   -1.9760 C   0  0  1  0  0  0  0  0  0  0  0  0
   -6.2320   -3.3970   -0.8980 C   0  0  0  0  0  0  0  0  0  0  0  0
   -6.9420   -1.3410   -2.0780 N   0  0  0  0  0  0  0  0  0  0  0  0
   -4.2510   -0.4610   -2.1910 C   0  0  0  0  0  0  0  0  0  0  0  0
   -3.0830    0.1640   -1.7920 C   0  0  0  0  0  0  0  0  0  0  0  0
   -0.8290    1.6130   -0.7470 C   0  0  0  0  0  0  0  0  0  0  0  0
    0.9150    4.7880   -1.3180 H   0  0  0  0  0  0  0  0  0  0  0  0
   -0.6240    4.1130   -1.9120 H   0  0  0  0  0  0  0  0  0  0  0  0
   -0.5730    5.4870   -0.7850 H   0  0  0  0  0  0  0  0  0  0  0  0
    1.6930    2.2420    1.3540 H   0  0  0  0  0  0  0  0  0  0  0  0
    3.8150    0.4320   -0.5200 H   0  0  0  0  0  0  0  0  0  0  0  0
    5.8710   -0.5500    0.2480 H   0  0  0  0  0  0  0  0  0  0  0  0
    3.7470   -2.4190    3.4920 H   0  0  0  0  0  0  0  0  0  0  0  0
    1.6630   -1.3200    2.7790 H   0  0  0  0  0  0  0  0  0  0  0  0
    0.3370   -1.5120   -0.0040 H   0  0  0  0  0  0  0  0  0  0  0  0
   -1.2980   -2.5600   -0.8880 H   0  0  0  0  0  0  0  0  0  0  0  0
   -3.4090   -3.6330   -1.3910 H   0  0  0  0  0  0  0  0  0  0  0  0
   -5.9050   -2.8870   -2.9410 H   0  0  0  0  0  0  0  0  0  0  0  0
   -5.3700   -3.7650   -0.3340 H   0  0  0  0  0  0  0  0  0  0  0  0
   -6.9550   -3.0100   -0.1730 H   0  0  0  0  0  0  0  0  0  0  0  0
   -6.7100   -4.2630   -1.3670 H   0  0  0  0  0  0  0  0  0  0  0  0
   -7.5720   -1.4860   -2.8570 H   0  0  0  0  0  0  0  0  0  0  0  0
   -5.0360    0.1670   -2.6020 H   0  0  0  0  0  0  0  0  0  0  0  0
   -3.1200    1.2440   -1.8580 H   0  0  0  0  0  0  0  0  0  0  0  0
   -1.5940    2.1740   -1.2640 H   0  0  0  0  0  0  0  0  0  0  0  0
   -2.5450    6.1140    3.0730 C   0  0  0  0  0  0  0  0  0  0  0  0
   -2.1970    5.1260    4.0330 O   0  0  0  0  0  0  0  0  0  0  0  0
   -2.8040    3.9010    3.9300 C   0  0  0  0  0  0  0  0  0  0  0  0
   -3.6800    3.4940    2.9200 C   0  0  0  0  0  0  0  0  0  0  0  0
   -4.2610    2.2120    2.9500 C   0  0  0  0  0  0  0  0  0  0  0  0
   -5.0870    1.6450    1.8610 C   0  0  0  0  0  0  0  0  0  0  0  0
   -5.9320    2.3970    1.0380 C   0  0  0  0  0  0  0  0  0  0  0  0
   -6.6620    1.7770    0.0010 C   0  0  0  0  0  0  0  0  0  0  0  0
   -6.5860    0.3890   -0.2270 C   0  0  0  0  0  0  0  0  0  0  0  0
   -7.3220   -0.2060   -1.3860 C   0  0  0  0  0  0  0  0  0  0  0  0
   -8.3010    0.4070   -1.8190 O   0  0  0  0  0  0  0  0  0  0  0  0
   -5.7970   -0.3600    0.6280 C   0  0  0  0  0  0  0  0  0  0  0  0
   -5.0360    0.2600    1.6160 C   0  0  0  0  0  0  0  0  0  0  0  0
   -3.9750    1.3970    4.0620 C   0  0  0  0  0  0  0  0  0  0  0  0
   -3.0610    1.7450    5.0550 C   0  0  0  0  0  0  0  0  0  0  0  0
   -2.7690    0.7820    6.1300 C   0  0  0  0  0  0  0  0  0  0  0  0
   -3.8120    0.1930    6.8660 C   0  0  0  0  0  0  0  0  0  0  0  0
   -3.5490   -0.6720    7.9320 C   0  0  0  0  0  0  0  0  0  0  0  0
   -2.2290   -0.9680    8.3060 C   0  0  0  0  0  0  0  0  0  0  0  0
   -1.9980   -1.6210    9.6700 C   0  0  1  0  0  0  0  0  0  0  0  0
   -0.8030   -2.5780    9.7240 C   0  0  0  0  0  0  0  0  0  0  0  0
   -2.0090   -0.5680   10.6970 N   0  0  0  0  0  0  0  0  0  0  0  0
   -1.1870   -0.4630    7.5130 C   0  0  0  0  0  0  0  0  0  0  0  0
   -1.4580    0.4010    6.4400 C   0  0  0  0  0  0  0  0  0  0  0  0
   -2.4720    3.0100    4.9610 C   0  0  0  0  0  0  0  0  0  0  0  0
   -3.6240    6.3050    3.0610 H   0  0  0  0  0  0  0  0  0  0  0  0
   -2.0520    7.0500    3.3580 H   0  0  0  0  0  0  0  0  0  0  0  0
   -2.1820    5.8340    2.0800 H   0  0  0  0  0  0  0  0  0  0  0  0
   -3.8940    4.1540    2.0870 H   0  0  0  0  0  0  0  0  0  0  0  0
   -6.0380    3.4690    1.1860 H   0  0  0  0  0  0  0  0  0  0  0  0
   -7.2850    2.4010   -0.6390 H   0  0  0  0  0  0  0  0  0  0  0  0
   -5.6990   -1.4270    0.5400 H   0  0  0  0  0  0  0  0  0  0  0  0
   -4.3690   -0.3840    2.1860 H   0  0  0  0  0  0  0  0  0  0  0  0
   -4.4570    0.4240    4.1450 H   0  0  0  0  0  0  0  0  0  0  0  0
   -4.8480    0.4420    6.6410 H   0  0  0  0  0  0  0  0  0  0  0  0
   -4.3840   -1.0600    8.5120 H   0  0  0  0  0  0  0  0  0  0  0  0
   -2.8850   -2.2310    9.8880 H   0  0  0  0  0  0  0  0  0  0  0  0
   -0.8660   -3.3360    8.9340 H   0  0  0  0  0  0  0  0  0  0  0  0
    0.1500   -2.0550    9.5970 H   0  0  0  0  0  0  0  0  0  0  0  0
   -0.7660   -3.1010   10.6860 H   0  0  0  0  0  0  0  0  0  0  0  0
   -2.8240    0.0180   10.5980 H   0  0  0  0  0  0  0  0  0  0  0  0
   -0.1460   -0.6550    7.7650 H   0  0  0  0  0  0  0  0  0  0  0  0
   -0.6270    0.8170    5.8730 H   0  0  0  0  0  0  0  0  0  0  0  0
   -1.7540    3.3390    5.7030 H   0  0  0  0  0  0  0  0  0  0  0  0
    0.4020    8.5690    7.8070 C   0  0  0  0  0  0  0  0  0  0  0  0
    0.7970    7.9800    6.5760 O   0  0  0  0  0  0  0  0  0  0  0  0
    0.8890    6.6150    6.5480 C   0  0  0  0  0  0  0  0  0  0  0  0
    0.4660    5.7410    7.5410 C   0  0  0  0  0  0  0  0  0  0  0  0
    0.6030    4.3520    7.3770 C   0  0  0  0  0  0  0  0  0  0  0  0
    0.1320    3.4720    8.4740 C   0  0  0  0  0  0  0  0  0  0  0  0
    0.9960    3.0570    9.4940 C   0  0  0  0  0  0  0  0  0  0  0  0
    0.6040    2.0840   10.4260 C   0  0  0  0  0  0  0  0  0  0  0  0
   -0.6670    1.4920   10.3450 C   0  0  0  0  0  0  0  0  0  0  0  0
   -0.8430    0.1420   10.9770 C   0  0  0  0  0  0  0  0  0  0  0  0
    0.0710   -0.3630   11.6230 O   0  0  0  0  0  0  0  0  0  0  0  0
   -1.6060    2.0730    9.4900 C   0  0  0  0  0  0  0  0  0  0  0  0
   -1.2040    3.0540    8.5640 C   0  0  0  0  0  0  0  0  0  0  0  0
    1.1830    3.8530    6.1600 C   0  0  0  0  0  0  0  0  0  0  0  0
    1.6040    4.7180    5.1240 C   0  0  0  0  0  0  0  0  0  0  0  0
    2.1310    4.3500    3.7600 C   0  0  0  0  0  0  0  0  0  0  0  0
    3.2720    3.5820    3.4880 C   0  0  0  0  0  0  0  0  0  0  0  0
    3.7840    3.4310    2.1530 C   0  0  0  0  0  0  0  0  0  0  0  0
    3.2090    4.0730    1.0320 C   0  0  0  0  0  0  0  0  0  0  0  0
    3.7280    3.8340   -0.4090 C   0  0  1  0  0  0  0  0  0  0  0  0
    3.0050    2.9040   -1.4110 C   0  0  0  0  0  0  0  0  0  0  0  0
    4.0920    5.0990   -1.0390 N   0  0  0  0  0  0  0  0  0  0  0  0
    2.1220    4.8980    1.3340 C   0  0  0  0  0  0  0  0  0  0  0  0
    1.5520    4.9590    2.6310 C   0  0  0  0  0  0  0  0  0  0  0  0
    1.4480    6.1010    5.3740 C   0  0  0  0  0  0  0  0  0  0  0  0
    1.0900    8.2890    8.6100 H   0  0  0  0  0  0  0  0  0  0  0  0
    0.4450    9.6580    7.6930 H   0  0  0  0  0  0  0  0  0  0  0  0
   -0.6300    8.3050    8.0590 H   0  0  0  0  0  0  0  0  0  0  0  0
    0.0150    6.1090    8.4580 H   0  0  0  0  0  0  0  0  0  0  0  0
    2.0070    3.4530    9.5460 H   0  0  0  0  0  0  0  0  0  0  0  0
    1.3210    1.7240   11.1610 H   0  0  0  0  0  0  0  0  0  0  0  0
   -2.6210    1.7080    9.4190 H   0  0  0  0  0  0  0  0  0  0  0  0
   -1.9500    3.4270    7.8710 H   0  0  0  0  0  0  0  0  0  0  0  0
    1.2560    2.7730    6.0280 H   0  0  0  0  0  0  0  0  0  0  0  0
    3.8100    3.0970    4.3000 H   0  0  0  0  0  0  0  0  0  0  0  0
    4.6410    2.7750    2.0050 H   0  0  0  0  0  0  0  0  0  0  0  0
    4.6920    3.3330   -0.2720 H   0  0  0  0  0  0  0  0  0  0  0  0
    2.8060    1.9160   -1.0410 H   0  0  0  0  0  0  0  0  0  0  0  0
    2.0470    3.2660   -1.7780 H   0  0  0  0  0  0  0  0  0  0  0  0
    3.6300    2.7560   -2.3040 H   0  0  0  0  0  0  0  0  0  0  0  0
    4.8320    5.6160   -0.5760 H   0  0  0  0  0  0  0  0  0  0  0  0
    1.6320    5.4740    0.5590 H   0  0  0  0  0  0  0  0  0  0  0  0
    0.6210    5.5150    2.7540 H   0  0  0  0  0  0  0  0  0  0  0  0
    1.7610    6.8120    4.6130 H   0  0  0  0  0  0  0  0  0  0  0  0
    7.9170   11.9240   -7.3700 C   0  0  0  0  0  0  0  0  0  0  0  0
    6.6610   12.5720   -7.2160 O   0  0  0  0  0  0  0  0  0  0  0  0
    5.7560   11.9900   -6.3700 C   0  0  0  0  0  0  0  0  0  0  0  0
    5.9640   10.8260   -5.6220 C   0  0  0  0  0  0  0  0  0  0  0  0
    4.9440   10.3350   -4.8000 C   0  0  0  0  0  0  0  0  0  0  0  0
    5.0280    9.0860   -4.0400 C   0  0  0  0  0  0  0  0  0  0  0  0
    5.2680    7.8740   -4.7050 C   0  0  0  0  0  0  0  0  0  0  0  0
    4.9200    6.6750   -4.0870 C   0  0  0  0  0  0  0  0  0  0  0  0
    4.3810    6.7000   -2.8040 C   0  0  0  0  0  0  0  0  0  0  0  0
    3.7230    5.4910   -2.3010 C   0  0  0  0  0  0  0  0  0  0  0  0
    2.9170    4.9630   -3.0590 O   0  0  0  0  0  0  0  0  0  0  0  0
    4.2660    7.8810   -2.0710 C   0  0  0  0  0  0  0  0  0  0  0  0
    4.6020    9.0700   -2.6970 C   0  0  0  0  0  0  0  0  0  0  0  0
    3.7240   11.0300   -4.7400 C   0  0  0  0  0  0  0  0  0  0  0  0
    3.5000   12.2000   -5.4560 C   0  0  0  0  0  0  0  0  0  0  0  0
    2.2380   12.9150   -5.2740 C   0  0  0  0  0  0  0  0  0  0  0  0
    1.0090   12.3680   -5.6730 C   0  0  0  0  0  0  0  0  0  0  0  0
   -0.1800   13.0930   -5.5250 C   0  0  0  0  0  0  0  0  0  0  0  0
   -0.1640   14.3700   -4.9440 C   0  0  0  0  0  0  0  0  0  0  0  0
   -1.3890   15.2740   -5.0400 C   0  0  1  0  0  0  0  0  0  0  0  0
   -1.7330   16.0200   -3.7500 C   0  0  0  0  0  0  0  0  0  0  0  0
   -1.2160   16.1140   -6.2190 N   0  0  0  0  0  0  0  0  0  0  0  0
    1.0520   14.8710   -4.4620 C   0  0  0  0  0  0  0  0  0  0  0  0
    2.2370   14.1600   -4.6370 C   0  0  0  0  0  0  0  0  0  0  0  0
    4.5290   12.6650   -6.2820 C   0  0  0  0  0  0  0  0  0  0  0  0
    7.7940   10.9150   -7.7760 H   0  0  0  0  0  0  0  0  0  0  0  0
    8.5030   12.5040   -8.0900 H   0  0  0  0  0  0  0  0  0  0  0  0
    8.4720   11.9070   -6.4260 H   0  0  0  0  0  0  0  0  0  0  0  0
    6.9020   10.2840   -5.6650 H   0  0  0  0  0  0  0  0  0  0  0  0
    5.5950    7.8570   -5.7370 H   0  0  0  0  0  0  0  0  0  0  0  0
    4.9780    5.7400   -4.6420 H   0  0  0  0  0  0  0  0  0  0  0  0
    3.8140    7.8890   -1.0840 H   0  0  0  0  0  0  0  0  0  0  0  0
    4.4070   10.0090   -2.1780 H   0  0  0  0  0  0  0  0  0  0  0  0
    2.9210   10.6450   -4.1100 H   0  0  0  0  0  0  0  0  0  0  0  0
    0.9720   11.3810   -6.1340 H   0  0  0  0  0  0  0  0  0  0  0  0
   -1.1060   12.6690   -5.9090 H   0  0  0  0  0  0  0  0  0  0  0  0
   -2.2560   14.6430   -5.2730 H   0  0  0  0  0  0  0  0  0  0  0  0
   -1.9150   15.3130   -2.9350 H   0  0  0  0  0  0  0  0  0  0  0  0
   -0.9390   16.6940   -3.4130 H   0  0  0  0  0  0  0  0  0  0  0  0
   -2.6370   16.6240   -3.8900 H   0  0  0  0  0  0  0  0  0  0  0  0
   -0.9840   15.5780   -7.0400 H   0  0  0  0  0  0  0  0  0  0  0  0
    1.1050   15.8590   -4.0130 H   0  0  0  0  0  0  0  0  0  0  0  0
    3.1700   14.5970   -4.2880 H   0  0  0  0  0  0  0  0  0  0  0  0
    4.3810   13.5660   -6.8740 H   0  0  0  0  0  0  0  0  0  0  0  0
    7.0970   -4.1730    3.2850 C   0  0  0  0  0  0  0  0  0  0  0  0
    6.0010   -3.2740    3.1060 O   0  0  0  0  0  0  0  0  0  0  0  0
    7.0710   -4.9220    2.4910 H   0  0  0  0  0  0  0  0  0  0  0  0
    6.9690   -4.6760    4.2490 H   0  0  0  0  0  0  0  0  0  0  0  0
    8.0630   -3.6590    3.2950 H   0  0  0  0  0  0  0  0  0  0  0  0
    2.7670   17.1320   -8.0190 C   0  0  0  0  0  0  0  0  0  0  0  0
    1.7330   17.9150   -7.1880 C   0  0  0  0  0  0  0  0  0  0  0  0
    2.3810   18.2540   -5.8350 C   0  0  0  0  0  0  0  0  0  0  0  0
    1.3290   19.1790   -7.9410 C   0  0  0  0  0  0  0  0  0  0  0  0
    0.5820   17.0320   -7.0980 O   0  0  0  0  0  0  0  0  0  0  0  0
   -0.3710   17.2060   -6.1600 C   0  0  0  0  0  0  0  0  0  0  0  0
   -0.4510   18.1070   -5.3610 O   0  0  0  0  0  0  0  0  0  0  0  0
    3.6790   17.7110   -8.1960 H   0  0  0  0  0  0  0  0  0  0  0  0
    3.0440   16.1990   -7.5110 H   0  0  0  0  0  0  0  0  0  0  0  0
    2.3500   16.8400   -8.9900 H   0  0  0  0  0  0  0  0  0  0  0  0
    2.5890   17.3470   -5.2610 H   0  0  0  0  0  0  0  0  0  0  0  0
    1.7460   18.8900   -5.2120 H   0  0  0  0  0  0  0  0  0  0  0  0
    3.3230   18.7950   -5.9720 H   0  0  0  0  0  0  0  0  0  0  0  0
    0.9020   18.9250   -8.9190 H   0  0  0  0  0  0  0  0  0  0  0  0
    0.5570   19.7330   -7.3990 H   0  0  0  0  0  0  0  0  0  0  0  0
    2.1870   19.8390   -8.0970 H   0  0  0  0  0  0  0  0  0  0  0  0
  1 28  1  0  0  0  0
  1  2  1  0  0  0  0
  3  2  1  0  0  0  0
  3  4  1  0  0  0  0
  4 29  1  0  0  0  0
  5  4  2  0  0  0  0
  5  6  1  0  0  0  0
  6 13  1  0  0  0  0
  7  8  1  0  0  0  0
  7  6  2  0  0  0  0
  8  9  2  0  0  0  0
  9 10  1  0  0  0  0
  9 12  1  0  0  0  0
 10178  1  0  0  0  0
 11 10  2  0  0  0  0
 12 32  1  0  0  0  0
 13 12  2  0  0  0  0
 13 33  1  0  0  0  0
 14 34  1  0  0  0  0
 14  5  1  0  0  0  0
 15 14  2  0  0  0  0
 16 17  1  0  0  0  0
 16 15  1  0  0  0  0
 17 35  1  0  0  0  0
 18 36  1  0  0  0  0
 18 17  2  0  0  0  0
 19 18  1  0  0  0  0
 20 37  1  6  0  0  0
 20 19  1  0  0  0  0
 20 21  1  0  0  0  0
 21 38  1  0  0  0  0
 21 39  1  0  0  0  0
 22 20  1  0  0  0  0
 22 54  1  0  0  0  0
 23 19  2  0  0  0  0
 23 24  1  0  0  0  0
 24 16  2  0  0  0  0
 25 15  1  0  0  0  0
 25  3  2  0  0  0  0
 26  1  1  0  0  0  0
 27  1  1  0  0  0  0
 30  7  1  0  0  0  0
 31  8  1  0  0  0  0
 40 21  1  0  0  0  0
 41 22  1  0  0  0  0
 42 23  1  0  0  0  0
 43 24  1  0  0  0  0
 44 25  1  0  0  0  0
 45 71  1  0  0  0  0
 45 46  1  0  0  0  0
 47 46  1  0  0  0  0
 47 69  1  0  0  0  0
 48 49  1  0  0  0  0
 48 47  2  0  0  0  0
 49 58  2  0  0  0  0
 50 49  1  0  0  0  0
 51 74  1  0  0  0  0
 51 50  2  0  0  0  0
 52 51  1  0  0  0  0
 53 52  2  0  0  0  0
 53 56  1  0  0  0  0
 54 53  1  0  0  0  0
 55 54  2  0  0  0  0
 56 57  2  0  0  0  0
 57 50  1  0  0  0  0
 57 77  1  0  0  0  0
 58 78  1  0  0  0  0
 58 59  1  0  0  0  0
 59 60  1  0  0  0  0
 60 68  2  0  0  0  0
 60 61  1  0  0  0  0
 61 62  2  0  0  0  0
 62 63  1  0  0  0  0
 62 80  1  0  0  0  0
 63 64  1  0  0  0  0
 64 65  1  0  0  0  0
 64 81  1  1  0  0  0
 64 66  1  0  0  0  0
 65 84  1  0  0  0  0
 66 98  1  0  0  0  0
 67 86  1  0  0  0  0
 67 63  2  0  0  0  0
 68 67  1  0  0  0  0
 69 59  2  0  0  0  0
 69 88  1  0  0  0  0
 70 45  1  0  0  0  0
 72 45  1  0  0  0  0
 73 48  1  0  0  0  0
 75 52  1  0  0  0  0
 76 56  1  0  0  0  0
 79 61  1  0  0  0  0
 82 65  1  0  0  0  0
 83 65  1  0  0  0  0
 85 66  1  0  0  0  0
 87 68  1  0  0  0  0
 89116  1  0  0  0  0
 89114  1  0  0  0  0
 90 89  1  0  0  0  0
 91 90  1  0  0  0  0
 91 92  1  0  0  0  0
 92117  1  0  0  0  0
 93 92  2  0  0  0  0
 93 94  1  0  0  0  0
 94101  2  0  0  0  0
 94 95  1  0  0  0  0
 95118  1  0  0  0  0
 95 96  2  0  0  0  0
 96119  1  0  0  0  0
 97 96  1  0  0  0  0
 97 98  1  0  0  0  0
 98 99  2  0  0  0  0
100 97  2  0  0  0  0
101100  1  0  0  0  0
102 93  1  0  0  0  0
103113  1  0  0  0  0
103102  2  0  0  0  0
104103  1  0  0  0  0
105104  1  0  0  0  0
105123  1  0  0  0  0
106105  2  0  0  0  0
107111  2  0  0  0  0
107106  1  0  0  0  0
108125  1  1  0  0  0
108107  1  0  0  0  0
109126  1  0  0  0  0
109108  1  0  0  0  0
110129  1  0  0  0  0
110108  1  0  0  0  0
111112  1  0  0  0  0
112131  1  0  0  0  0
112104  2  0  0  0  0
113 91  2  0  0  0  0
115 89  1  0  0  0  0
120100  1  0  0  0  0
121101  1  0  0  0  0
122102  1  0  0  0  0
124106  1  0  0  0  0
127109  1  0  0  0  0
128109  1  0  0  0  0
130111  1  0  0  0  0
132113  1  0  0  0  0
133134  1  0  0  0  0
133160  1  0  0  0  0
134135  1  0  0  0  0
135157  2  0  0  0  0
135136  1  0  0  0  0
136137  2  0  0  0  0
137146  1  0  0  0  0
137138  1  0  0  0  0
138145  1  0  0  0  0
139140  1  0  0  0  0
139138  2  0  0  0  0
140141  2  0  0  0  0
141142  1  0  0  0  0
141144  1  0  0  0  0
142110  1  0  0  0  0
143142  2  0  0  0  0
144164  1  0  0  0  0
145165  1  0  0  0  0
145144  2  0  0  0  0
146166  1  0  0  0  0
147148  1  0  0  0  0
147146  2  0  0  0  0
148156  1  0  0  0  0
149150  1  0  0  0  0
149148  2  0  0  0  0
150151  2  0  0  0  0
151155  1  0  0  0  0
152169  1  6  0  0  0
152151  1  0  0  0  0
152153  1  0  0  0  0
153171  1  0  0  0  0
153170  1  0  0  0  0
154187  1  0  0  0  0
154152  1  0  0  0  0
155174  1  0  0  0  0
156155  2  0  0  0  0
156175  1  0  0  0  0
157147  1  0  0  0  0
158133  1  0  0  0  0
159133  1  0  0  0  0
161136  1  0  0  0  0
162139  1  0  0  0  0
163140  1  0  0  0  0
167149  1  0  0  0  0
168150  1  0  0  0  0
172153  1  0  0  0  0
173154  1  0  0  0  0
176157  1  0  0  0  0
177181  1  0  0  0  0
177180  1  0  0  0  0
178177  1  0  0  0  0
179177  1  0  0  0  0
182190  1  0  0  0  0
182183  1  0  0  0  0
183186  1  0  0  0  0
183184  1  0  0  0  0
184192  1  0  0  0  0
184193  1  0  0  0  0
185196  1  0  0  0  0
185183  1  0  0  0  0
186187  1  0  0  0  0
187188  2  0  0  0  0
189182  1  0  0  0  0
191182  1  0  0  0  0
194184  1  0  0  0  0
195185  1  0  0  0  0
197185  1  0  0  0  0
M  END
