pmp_tetramer.pdb
  -OEChem-11242515343D

197208  0     1  0  0  0  0  0999 V2000
   -0.1090    4.5290   -1.0440 C   0  0  0  0  0  0  0  0  0  0  0  0
   -0.1290    3.7060    0.1340 O   0  0  0  0  0  0  0  0  0  0  0  0
    0.0620    2.3610   -0.0190 C   0  0  0  0  0  0  0  0  0  0  0  0
    1.0460    1.6840    0.7050 C   0  0  0  0  0  0  0  0  0  0  0  0
    1.2730    0.3050    0.5890 C   0  0  0  0  0  0  0  0  0  0  0  0
    2.5340   -0.3200    1.0810 C   0  0  0  0  0  0  0  0  0  0  0  0
    3.7570   -0.1390    0.3960 C   0  0  0  0  0  0  0  0  0  0  0  0
    4.9570   -0.7230    0.8130 C   0  0  0  0  0  0  0  0  0  0  0  0
    4.9610   -1.5670    1.9190 C   0  0  0  0  0  0  0  0  0  0  0  0
    6.2370   -2.2730    2.2270 C   0  0  0  0  0  0  0  0  0  0  0  0
    7.2980   -2.0190    1.6780 O   0  0  0  0  0  0  0  0  0  0  0  0
    3.7680   -1.7640    2.6240 C   0  0  0  0  0  0  0  0  0  0  0  0
    2.5720   -1.1390    2.2120 C   0  0  0  0  0  0  0  0  0  0  0  0
    0.2650   -0.4290   -0.0490 C   0  0  0  0  0  0  0  0  0  0  0  0
   -0.8240    0.2030   -0.7040 C   0  0  0  0  0  0  0  0  0  0  0  0
   -1.9900   -0.5360   -1.2550 C   0  0  0  0  0  0  0  0  0  0  0  0
   -2.1210   -1.9300   -1.2110 C   0  0  0  0  0  0  0  0  0  0  0  0
   -3.3450   -2.5530   -1.5120 C   0  0  0  0  0  0  0  0  0  0  0  0
   -4.4630   -1.8000   -1.9010 C   0  0  0  0  0  0  0  0  0  0  0  0
   -5.8700   -2.3630   -1.9760 C   0  0  1  0  0  0  0  0  0  0  0  0
   -6.2320   -3.3970   -0.8980 C   0  0  0  0  0  0  0  0  0  0  0  0
   -6.9420   -1.3410   -2.0780 N   0  0  0  0  0  0  0  0  0  0  0  0
   -4.2510   -0.4610   -2.1910 C   0  0  0  0  0  0  0  0  0  0  0  0
   -3.0830    0.1640   -1.7920 C   0  0  0  0  0  0  0  0  0  0  0  0
   -0.8290    1.6130   -0.7470 C   0  0  0  0  0  0  0  0  0  0  0  0
    0.9150    4.7880   -1.3180 H   0  0  0  0  0  0  0  0  0  0  0  0
   -0.6240    4.1130   -1.9120 H   0  0  0  0  0  0  0  0  0  0  0  0
   -0.5730    5.4870   -0.7850 H   0  0  0  0  0  0  0  0  0  0  0  0
    1.6930    2.2420    1.3540 H   0  0  0  0  0  0  0  0  0  0  0  0
    3.8150    0.4320   -0.5200 H   0  0  0  0  0  0  0  0  0  0  0  0
    5.8710   -0.5500    0.2480 H   0  0  0  0  0  0  0  0  0  0  0  0
    3.7470   -2.4190    3.4920 H   0  0  0  0  0  0  0  0  0  0  0  0
    1.6630   -1.3200    2.7790 H   0  0  0  0  0  0  0  0  0  0  0  0
    0.3370   -1.5120   -0.0040 H   0  0  0  0  0  0  0  0  0  0  0  0
   -1.2980   -2.5600   -0.8880 H   0  0  0  0  0  0  0  0  0  0  0  0
   -3.4090   -3.6330   -1.3910 H   0  0  0  0  0  0  0  0  0  0  0  0
   -5.9050   -2.8870   -2.9410 H   0  0  0  0  0  0  0  0  0  0  0  0
   -5.3700   -3.7650   -0.3340 H   0  0  0  0  0  0  0  0  0  0  0  0
   -6.9550   -3.0100   -0.1730 H   0  0  0  0  0  0  0  0  0  0  0  0
   -6.7100   -4.2630   -1.3670 H   0  0  0  0  0  0  0  0  0  0  0  0
   -7.5720   -1.4860   -2.8570 H   0  0  0  0  0  0  0  0  0  0  0  0
   -5.0360    0.1670   -2.6020 H   0  0  0  0  0  0  0  0  0  0  0  0
   -3.1200    1.2440   -1.8580 H   0  0  0  0  0  0  0  0  0  0  0  0
   -1.5940    2.1740   -1.2640 H   0  0  0  0  0  0  0  0  0  0  0  0
   -2.5450    6.1140    3.0730 C   0  0  0  0  0  0  0  0  0  0  0  0
   -2.1970    5.1260    4.0330 O   0  0  0  0  0  0  0  0  0  0  0  0
   -2.8040    3.9010    3.9300 C   0  0  0  0  0  0  0  0  0  0  0  0
   -3.6800    3.4940    2.9200 C   0  0  0  0  0  0  0  0  0  0  0  0
   -4.2610    2.2120    2.9500 C   0  0  0  0  0  0  0  0  0  0  0  0
   -5.0870    1.6450    1.8610 C   0  0  0  0  0  0  0  0  0  0  0  0
   -5.9320    2.3970    1.0380 C   0  0  0  0  0  0  0  0  0  0  0  0
   -6.6620    1.7770    0.0010 C   0  0  0  0  0  0  0  0  0  0  0  0
   -6.5860    0.3890   -0.2270 C   0  0  0  0  0  0  0  0  0  0  0  0
   -7.3220   -0.2060   -1.3860 C   0  0  0  0  0  0  0  0  0  0  0  0
   -8.3010    0.4070   -1.8190 O   0  0  0  0  0  0  0  0  0  0  0  0
   -5.7970   -0.3600    0.6280 C   0  0  0  0  0  0  0  0  0  0  0  0
   -5.0360    0.2600    1.6160 C   0  0  0  0  0  0  0  0  0  0  0  0
   -3.9750    1.3970    4.0620 C   0  0  0  0  0  0  0  0  0  0  0  0
   -3.0610    1.7450    5.0550 C   0  0  0  0  0  0  0  0  0  0  0  0
   -2.7690    0.7820    6.1300 C   0  0  0  0  0  0  0  0  0  0  0  0
   -3.8120    0.1930    6.8660 C   0  0  0  0  0  0  0  0  0  0  0  0
   -3.5490   -0.6720    7.9320 C   0  0  0  0  0  0  0  0  0  0  0  0
   -2.2290   -0.9680    8.3060 C   0  0  0  0  0  0  0  0  0  0  0  0
   -1.9980   -1.6210    9.6700 C   0  0  1  0  0  0  0  0  0  0  0  0
   -0.8030   -2.5780    9.7240 C   0  0  0  0  0  0  0  0  0  0  0  0
   -2.0090   -0.5680   10.6970 N   0  0  0  0  0  0  0  0  0  0  0  0
   -1.1870   -0.4630    7.5130 C   0  0  0  0  0  0  0  0  0  0  0  0
   -1.4580    0.4010    6.4400 C   0  0  0  0  0  0  0  0  0  0  0  0
   -2.4720    3.0100    4.9610 C   0  0  0  0  0  0  0  0  0  0  0  0
   -3.6240    6.3050    3.0610 H   0  0  0  0  0  0  0  0  0  0  0  0
   -2.0520    7.0500    3.3580 H   0  0  0  0  0  0  0  0  0  0  0  0
   -2.1820    5.8340    2.0800 H   0  0  0  0  0  0  0  0  0  0  0  0
   -3.8940    4.1540    2.0870 H   0  0  0  0  0  0  0  0  0  0  0  0
   -6.0380    3.4690    1.1860 H   0  0  0  0  0  0  0  0  0  0  0  0
   -7.2850    2.4010   -0.6390 H   0  0  0  0  0  0  0  0  0  0  0  0
   -5.6990   -1.4270    0.5400 H   0  0  0  0  0  0  0  0  0  0  0  0
   -4.3690   -0.3840    2.1860 H   0  0  0  0  0  0  0  0  0  0  0  0
   -4.4570    0.4240    4.1450 H   0  0  0  0  0  0  0  0  0  0  0  0
   -4.8480    0.4420    6.6410 H   0  0  0  0  0  0  0  0  0  0  0  0
   -4.3840   -1.0600    8.5120 H   0  0  0  0  0  0  0  0  0  0  0  0
   -2.8850   -2.2310    9.8880 H   0  0  0  0  0  0  0  0  0  0  0  0
   -0.8660   -3.3360    8.9340 H   0  0  0  0  0  0  0  0  0  0  0  0
    0.1500   -2.0550    9.5970 H   0  0  0  0  0  0  0  0  0  0  0  0
   -0.7660   -3.1010   10.6860 H   0  0  0  0  0  0  0  0  0  0  0  0
   -2.8240    0.0180   10.5980 H   0  0  0  0  0  0  0  0  0  0  0  0
   -0.1460   -0.6550    7.7650 H   0  0  0  0  0  0  0  0  0  0  0  0
   -0.6270    0.8170    5.8730 H   0  0  0  0  0  0  0  0  0  0  0  0
   -1.7540    3.3390    5.7030 H   0  0  0  0  0  0  0  0  0  0  0  0
    0.4020    8.5690    7.8070 C   0  0  0  0  0  0  0  0  0  0  0  0
    0.7970    7.9800    6.5760 O   0  0  0  0  0  0  0  0  0  0  0  0
    0.8890    6.6150    6.5480 C   0  0  0  0  0  0  0  0  0  0  0  0
    0.4660    5.7410    7.5410 C   0  0  0  0  0  0  0  0  0  0  0  0
    0.6030    4.3520    7.3770 C   0  0  0  0  0  0  0  0  0  0  0  0
    0.1320    3.4720    8.4740 C   0  0  0  0  0  0  0  0  0  0  0  0
    0.9960    3.0570    9.4940 C   0  0  0  0  0  0  0  0  0  0  0  0
    0.6040    2.0840   10.4260 C   0  0  0  0  0  0  0  0  0  0  0  0
   -0.6670    1.4920   10.3450 C   0  0  0  0  0  0  0  0  0  0  0  0
   -0.8430    0.1420   10.9770 C   0  0  0  0  0  0  0  0  0  0  0  0
    0.0710   -0.3630   11.6230 O   0  0  0  0  0  0  0  0  0  0  0  0
   -1.6060    2.0730    9.4900 C   0  0  0  0  0  0  0  0  0  0  0  0
   -1.2040    3.0540    8.5640 C   0  0  0  0  0  0  0  0  0  0  0  0
    1.1830    3.8530    6.1600 C   0  0  0  0  0  0  0  0  0  0  0  0
    1.6040    4.7180    5.1240 C   0  0  0  0  0  0  0  0  0  0  0  0
    2.1310    4.3500    3.7600 C   0  0  0  0  0  0  0  0  0  0  0  0
    3.2720    3.5820    3.4880 C   0  0  0  0  0  0  0  0  0  0  0  0
    3.7840    3.4310    2.1530 C   0  0  0  0  0  0  0  0  0  0  0  0
    3.2090    4.0730    1.0320 C   0  0  0  0  0  0  0  0  0  0  0  0
    3.7280    3.8340   -0.4090 C   0  0  1  0  0  0  0  0  0  0  0  0
    3.0050    2.9040   -1.4110 C   0  0  0  0  0  0  0  0  0  0  0  0
    4.0920    5.0990   -1.0390 N   0  0  0  0  0  0  0  0  0  0  0  0
    2.1220    4.8980    1.3340 C   0  0  0  0  0  0  0  0  0  0  0  0
    1.5520    4.9590    2.6310 C   0  0  0  0  0  0  0  0  0  0  0  0
    1.4480    6.1010    5.3740 C   0  0  0  0  0  0  0  0  0  0  0  0
    1.0900    8.2890    8.6100 H   0  0  0  0  0  0  0  0  0  0  0  0
    0.4450    9.6580    7.6930 H   0  0  0  0  0  0  0  0  0  0  0  0
   -0.6300    8.3050    8.0590 H   0  0  0  0  0  0  0  0  0  0  0  0
    0.0150    6.1090    8.4580 H   0  0  0  0  0  0  0  0  0  0  0  0
    2.0070    3.4530    9.5460 H   0  0  0  0  0  0  0  0  0  0  0  0
    1.3210    1.7240   11.1610 H   0  0  0  0  0  0  0  0  0  0  0  0
   -2.6210    1.7080    9.4190 H   0  0  0  0  0  0  0  0  0  0  0  0
   -1.9500    3.4270    7.8710 H   0  0  0  0  0  0  0  0  0  0  0  0
    1.2560    2.7730    6.0280 H   0  0  0  0  0  0  0  0  0  0  0  0
    3.8100    3.0970    4.3000 H   0  0  0  0  0  0  0  0  0  0  0  0
    4.6410    2.7750    2.0050 H   0  0  0  0  0  0  0  0  0  0  0  0
    4.6920    3.3330   -0.2720 H   0  0  0  0  0  0  0  0  0  0  0  0
    2.8060    1.9160   -1.0410 H   0  0  0  0  0  0  0  0  0  0  0  0
    2.0470    3.2660   -1.7780 H   0  0  0  0  0  0  0  0  0  0  0  0
    3.6300    2.7560   -2.3040 H   0  0  0  0  0  0  0  0  0  0  0  0
    4.8320    5.6160   -0.5760 H   0  0  0  0  0  0  0  0  0  0  0  0
    1.6320    5.4740    0.5590 H   0  0  0  0  0  0  0  0  0  0  0  0
    0.6210    5.5150    2.7540 H   0  0  0  0  0  0  0  0  0  0  0  0
    1.7610    6.8120    4.6130 H   0  0  0  0  0  0  0  0  0  0  0  0
    7.9170   11.9240   -7.3700 C   0  0  0  0  0  0  0  0  0  0  0  0
    6.6610   12.5720   -7.2160 O   0  0  0  0  0  0  0  0  0  0  0  0
    5.7560   11.9900   -6.3700 C   0  0  0  0  0  0  0  0  0  0  0  0
    5.9640   10.8260   -5.6220 C   0  0  0  0  0  0  0  0  0  0  0  0
    4.9440   10.3350   -4.8000 C   0  0  0  0  0  0  0  0  0  0  0  0
    5.0280    9.0860   -4.0400 C   0  0  0  0  0  0  0  0  0  0  0  0
    5.2680    7.8740   -4.7050 C   0  0  0  0  0  0  0  0  0  0  0  0
    4.9200    6.6750   -4.0870 C   0  0  0  0  0  0  0  0  0  0  0  0
    4.3810    6.7000   -2.8040 C   0  0  0  0  0  0  0  0  0  0  0  0
    3.7230    5.4910   -2.3010 C   0  0  0  0  0  0  0  0  0  0  0  0
    2.9170    4.9630   -3.0590 O   0  0  0  0  0  0  0  0  0  0  0  0
    4.2660    7.8810   -2.0710 C   0  0  0  0  0  0  0  0  0  0  0  0
    4.6020    9.0700   -2.6970 C   0  0  0  0  0  0  0  0  0  0  0  0
    3.7240   11.0300   -4.7400 C   0  0  0  0  0  0  0  0  0  0  0  0
    3.5000   12.2000   -5.4560 C   0  0  0  0  0  0  0  0  0  0  0  0
    2.2380   12.9150   -5.2740 C   0  0  0  0  0  0  0  0  0  0  0  0
    1.0090   12.3680   -5.6730 C   0  0  0  0  0  0  0  0  0  0  0  0
   -0.1800   13.0930   -5.5250 C   0  0  0  0  0  0  0  0  0  0  0  0
   -0.1640   14.3700   -4.9440 C   0  0  0  0  0  0  0  0  0  0  0  0
   -1.3890   15.2740   -5.0400 C   0  0  1  0  0  0  0  0  0  0  0  0
   -1.7330   16.0200   -3.7500 C   0  0  0  0  0  0  0  0  0  0  0  0
   -1.2160   16.1140   -6.2190 N   0  0  0  0  0  0  0  0  0  0  0  0
    1.0520   14.8710   -4.4620 C   0  0  0  0  0  0  0  0  0  0  0  0
    2.2370   14.1600   -4.6370 C   0  0  0  0  0  0  0  0  0  0  0  0
    4.5290   12.6650   -6.2820 C   0  0  0  0  0  0  0  0  0  0  0  0
    7.7940   10.9150   -7.7760 H   0  0  0  0  0  0  0  0  0  0  0  0
    8.5030   12.5040   -8.0900 H   0  0  0  0  0  0  0  0  0  0  0  0
    8.4720   11.9070   -6.4260 H   0  0  0  0  0  0  0  0  0  0  0  0
    6.9020   10.2840   -5.6650 H   0  0  0  0  0  0  0  0  0  0  0  0
    5.5950    7.8570   -5.7370 H   0  0  0  0  0  0  0  0  0  0  0  0
    4.9780    5.7400   -4.6420 H   0  0  0  0  0  0  0  0  0  0  0  0
    3.8140    7.8890   -1.0840 H   0  0  0  0  0  0  0  0  0  0  0  0
    4.4070   10.0090   -2.1780 H   0  0  0  0  0  0  0  0  0  0  0  0
    2.9210   10.6450   -4.1100 H   0  0  0  0  0  0  0  0  0  0  0  0
    0.9720   11.3810   -6.1340 H   0  0  0  0  0  0  0  0  0  0  0  0
   -1.1060   12.6690   -5.9090 H   0  0  0  0  0  0  0  0  0  0  0  0
   -2.2560   14.6430   -5.2730 H   0  0  0  0  0  0  0  0  0  0  0  0
   -1.9150   15.3130   -2.9350 H   0  0  0  0  0  0  0  0  0  0  0  0
   -0.9390   16.6940   -3.4130 H   0  0  0  0  0  0  0  0  0  0  0  0
   -2.6370   16.6240   -3.8900 H   0  0  0  0  0  0  0  0  0  0  0  0
   -0.9840   15.5780   -7.0400 H   0  0  0  0  0  0  0  0  0  0  0  0
    1.1050   15.8590   -4.0130 H   0  0  0  0  0  0  0  0  0  0  0  0
    3.1700   14.5970   -4.2880 H   0  0  0  0  0  0  0  0  0  0  0  0
    4.3810   13.5660   -6.8740 H   0  0  0  0  0  0  0  0  0  0  0  0
    7.0970   -4.1730    3.2850 C   0  0  0  0  0  0  0  0  0  0  0  0
    6.0010   -3.2740    3.1060 O   0  0  0  0  0  0  0  0  0  0  0  0
    7.0710   -4.9220    2.4910 H   0  0  0  0  0  0  0  0  0  0  0  0
    6.9690   -4.6760    4.2490 H   0  0  0  0  0  0  0  0  0  0  0  0
    8.0630   -3.6590    3.2950 H   0  0  0  0  0  0  0  0  0  0  0  0
    2.7670   17.1320   -8.0190 C   0  0  0  0  0  0  0  0  0  0  0  0
    1.7330   17.9150   -7.1880 C   0  0  0  0  0  0  0  0  0  0  0  0
    2.3810   18.2540   -5.8350 C   0  0  0  0  0  0  0  0  0  0  0  0
    1.3290   19.1790   -7.9410 C   0  0  0  0  0  0  0  0  0  0  0  0
    0.5820   17.0320   -7.0980 O   0  0  0  0  0  0  0  0  0  0  0  0
   -0.3710   17.2060   -6.1600 C   0  0  0  0  0  0  0  0  0  0  0  0
   -0.4510   18.1070   -5.3610 O   0  0  0  0  0  0  0  0  0  0  0  0
    3.6790   17.7110   -8.1960 H   0  0  0  0  0  0  0  0  0  0  0  0
    3.0440   16.1990   -7.5110 H   0  0  0  0  0  0  0  0  0  0  0  0
    2.3500   16.8400   -8.9900 H   0  0  0  0  0  0  0  0  0  0  0  0
    2.5890   17.3470   -5.2610 H   0  0  0  0  0  0  0  0  0  0  0  0
    1.7460   18.8900   -5.2120 H   0  0  0  0  0  0  0  0  0  0  0  0
    3.3230   18.7950   -5.9720 H   0  0  0  0  0  0  0  0  0  0  0  0
    0.9020   18.9250   -8.9190 H   0  0  0  0  0  0  0  0  0  0  0  0
    0.5570   19.7330   -7.3990 H   0  0  0  0  0  0  0  0  0  0  0  0
    2.1870   19.8390   -8.0970 H   0  0  0  0  0  0  0  0  0  0  0  0
  1 28  1  0  0  0  0
  1  2  1  0  0  0  0
  2  3  1  0  0  0  0
  3  4  2  0  0  0  0
  4 29  1  0  0  0  0
  4  5  1  0  0  0  0
  5  6  1  0  0  0  0
  6 13  2  0  0  0  0
  7  8  2  0  0  0  0
  6  7  1  0  0  0  0
  8  9  1  0  0  0  0
  9 10  1  0  0  0  0
  9 12  2  0  0  0  0
 10178  1  0  0  0  0
 10 11  2  0  0  0  0
 12 32  1  0  0  0  0
 12 13  1  0  0  0  0
 13 33  1  0  0  0  0
 14 34  1  0  0  0  0
  5 14  2  0  0  0  0
 14 15  1  0  0  0  0
 16 17  2  0  0  0  0
 15 16  1  0  0  0  0
 17 35  1  0  0  0  0
 18 36  1  0  0  0  0
 17 18  1  0  0  0  0
 18 19  2  0  0  0  0
 20 37  1  0  0  0  0
 19 20  1  0  0  0  0
 20 21  1  0  0  0  0
 21 38  1  0  0  0  0
 21 39  1  0  0  0  0
 20 22  1  0  0  0  0
 22 54  1  0  0  0  0
 19 23  1  0  0  0  0
 23 24  2  0  0  0  0
 16 24  1  0  0  0  0
 15 25  2  0  0  0  0
  3 25  1  0  0  0  0
  1 26  1  0  0  0  0
  1 27  1  0  0  0  0
  7 30  1  0  0  0  0
  8 31  1  0  0  0  0
 21 40  1  0  0  0  0
 22 41  1  0  0  0  0
 23 42  1  0  0  0  0
 24 43  1  0  0  0  0
 25 44  1  0  0  0  0
 45 71  1  0  0  0  0
 45 46  1  0  0  0  0
 46 47  1  0  0  0  0
 47 69  2  0  0  0  0
 48 49  2  0  0  0  0
 47 48  1  0  0  0  0
 49 58  1  0  0  0  0
 49 50  1  0  0  0  0
 51 74  1  0  0  0  0
 50 51  2  0  0  0  0
 51 52  1  0  0  0  0
 52 53  2  0  0  0  0
 53 56  1  0  0  0  0
 53 54  1  0  0  0  0
 54 55  2  0  0  0  0
 56 57  2  0  0  0  0
 50 57  1  0  0  0  0
 57 77  1  0  0  0  0
 58 78  1  0  0  0  0
 58 59  2  0  0  0  0
 59 60  1  0  0  0  0
 60 68  1  0  0  0  0
 60 61  2  0  0  0  0
 61 62  1  0  0  0  0
 62 63  2  0  0  0  0
 62 80  1  0  0  0  0
 63 64  1  0  0  0  0
 64 65  1  0  0  0  0
 64 81  1  0  0  0  0
 64 66  1  0  0  0  0
 65 84  1  0  0  0  0
 66 98  1  0  0  0  0
 67 86  1  0  0  0  0
 63 67  1  0  0  0  0
 67 68  2  0  0  0  0
 59 69  1  0  0  0  0
 69 88  1  0  0  0  0
 45 70  1  0  0  0  0
 45 72  1  0  0  0  0
 48 73  1  0  0  0  0
 52 75  1  0  0  0  0
 56 76  1  0  0  0  0
 61 79  1  0  0  0  0
 65 82  1  0  0  0  0
 65 83  1  0  0  0  0
 66 85  1  0  0  0  0
 68 87  1  0  0  0  0
 89116  1  0  0  0  0
 89114  1  0  0  0  0
 89 90  1  0  0  0  0
 90 91  1  0  0  0  0
 91 92  2  0  0  0  0
 92117  1  0  0  0  0
 92 93  1  0  0  0  0
 93 94  1  0  0  0  0
 94101  1  0  0  0  0
 94 95  2  0  0  0  0
 95118  1  0  0  0  0
 95 96  1  0  0  0  0
 96119  1  0  0  0  0
 96 97  2  0  0  0  0
 97 98  1  0  0  0  0
 98 99  2  0  0  0  0
 97100  1  0  0  0  0
100101  2  0  0  0  0
 93102  2  0  0  0  0
103113  2  0  0  0  0
102103  1  0  0  0  0
103104  1  0  0  0  0
104105  2  0  0  0  0
105123  1  0  0  0  0
105106  1  0  0  0  0
107111  1  0  0  0  0
106107  2  0  0  0  0
108125  1  0  0  0  0
107108  1  0  0  0  0
109126  1  0  0  0  0
108109  1  0  0  0  0
110129  1  0  0  0  0
108110  1  0  0  0  0
111112  2  0  0  0  0
112131  1  0  0  0  0
104112  1  0  0  0  0
 91113  1  0  0  0  0
 89115  1  0  0  0  0
100120  1  0  0  0  0
101121  1  0  0  0  0
102122  1  0  0  0  0
106124  1  0  0  0  0
109127  1  0  0  0  0
109128  1  0  0  0  0
111130  1  0  0  0  0
113132  1  0  0  0  0
133134  1  0  0  0  0
133160  1  0  0  0  0
134135  1  0  0  0  0
135157  2  0  0  0  0
135136  1  0  0  0  0
136137  2  0  0  0  0
137146  1  0  0  0  0
137138  1  0  0  0  0
138145  2  0  0  0  0
139140  2  0  0  0  0
138139  1  0  0  0  0
140141  1  0  0  0  0
141142  1  0  0  0  0
141144  2  0  0  0  0
110142  1  0  0  0  0
142143  2  0  0  0  0
144164  1  0  0  0  0
145165  1  0  0  0  0
144145  1  0  0  0  0
146166  1  0  0  0  0
147148  1  0  0  0  0
146147  2  0  0  0  0
148156  2  0  0  0  0
149150  2  0  0  0  0
148149  1  0  0  0  0
150151  1  0  0  0  0
151155  2  0  0  0  0
152169  1  0  0  0  0
151152  1  0  0  0  0
152153  1  0  0  0  0
153171  1  0  0  0  0
153170  1  0  0  0  0
154187  1  0  0  0  0
152154  1  0  0  0  0
155174  1  0  0  0  0
155156  1  0  0  0  0
156175  1  0  0  0  0
147157  1  0  0  0  0
133158  1  0  0  0  0
133159  1  0  0  0  0
136161  1  0  0  0  0
139162  1  0  0  0  0
140163  1  0  0  0  0
149167  1  0  0  0  0
150168  1  0  0  0  0
153172  1  0  0  0  0
154173  1  0  0  0  0
157176  1  0  0  0  0
177181  1  0  0  0  0
177180  1  0  0  0  0
177178  1  0  0  0  0
177179  1  0  0  0  0
182190  1  0  0  0  0
182183  1  0  0  0  0
183186  1  0  0  0  0
183184  1  0  0  0  0
184192  1  0  0  0  0
184193  1  0  0  0  0
185196  1  0  0  0  0
183185  1  0  0  0  0
186187  1  0  0  0  0
187188  2  0  0  0  0
182189  1  0  0  0  0
182191  1  0  0  0  0
184194  1  0  0  0  0
185195  1  0  0  0  0
185197  1  0  0  0  0
M  END
> <atom.dprop.PartialCharge>
0.107410 -0.321060 0.120150 -0.139700 -0.013050 -0.010230 -0.132110 -0.072660 -0.125750 0.644470 -0.535050 -0.072660 -0.132110 -0.140420 -0.005350 -0.036200 -0.117000 -0.120670 -0.095850 0.150040 -0.110410 -0.570760 -0.120670 -0.117000 -0.193730 0.046410 0.046410 0.046410 0.156710 0.142350 0.154350 0.154350 0.142350 0.142190 0.137000 0.137200 0.088280 0.046140 0.046140 0.046140 0.312950 0.137200 0.137000 0.144640 0.112460 -0.326180 0.126020 -0.189160 -0.010040 -0.012580 -0.129320 -0.091970 -0.143180 0.676610 -0.606450 -0.091970 -0.129320 -0.142230 -0.005420 -0.034470 -0.117210 -0.121710 -0.096420 0.151020 -0.107300 -0.571700 -0.121710 -0.117210 -0.138070 0.045980 0.045980 0.045980 0.143660 0.140700 0.147550 0.147550 0.140700 0.136890 0.138250 0.136270 0.088820 0.045050 0.045050 0.045050 0.311870 0.136270 0.138250 0.154320 0.112980 -0.327530 0.124660 -0.137180 -0.012300 -0.013890 -0.126980 -0.093180 -0.138060 0.675720 -0.604230 -0.093180 -0.126980 -0.143140 -0.002790 -0.034700 -0.117350 -0.121340 -0.091650 0.150450 -0.114670 -0.567710 -0.121340 -0.117350 -0.189620 0.045740 0.045740 0.045740 0.155380 0.140740 0.147120 0.147120 0.140740 0.138100 0.135630 0.136360 0.088430 0.046870 0.046870 0.046870 0.310700 0.136360 0.135630 0.143160 0.112880 -0.326480 0.125580 -0.193000 -0.007620 -0.018260 -0.124390 -0.088970 -0.140150 0.673690 -0.607210 -0.088970 -0.124390 -0.145670 -0.007470 -0.032390 -0.117860 -0.118500 -0.098300 0.163650 -0.109420 -0.561850 -0.118500 -0.117860 -0.138030 0.045800 0.045800 0.045800 0.143070 0.140150 0.146800 0.146800 0.140150 0.141370 0.137380 0.137440 0.083630 0.047030 0.047030 0.047030 0.330700 0.137440 0.137380 0.154540 0.125090 -0.437810 0.051640 0.051640 0.051640 -0.114310 0.186040 -0.114310 -0.114310 -0.450120 0.753660 -0.603190 0.051780 0.051780 0.051780 0.051780 0.051780 0.051780 0.051780 0.051780 0.051780

$$$$
