pop_tetramer.pdb
  -OEChem-09162519093D

197208  0     1  0  0  0  0  0999 V2000
   -2.5220   -4.9310    0.7180 C   0  0  0  0  0  0  0  0  0  0  0  0
   -2.1330   -5.6380   -0.2160 O   0  0  0  0  0  0  0  0  0  0  0  0
   -2.4580   -3.4450    0.6700 C   0  0  0  0  0  0  0  0  0  0  0  0
   -2.8450   -2.6320    1.7410 C   0  0  0  0  0  0  0  0  0  0  0  0
   -2.6850   -1.2410    1.6530 C   0  0  0  0  0  0  0  0  0  0  0  0
   -2.1270   -0.6380    0.5110 C   0  0  0  0  0  0  0  0  0  0  0  0
   -1.9500    0.8330    0.4330 C   0  0  0  0  0  0  0  0  0  0  0  0
   -0.7010    1.4520    0.1610 C   0  0  0  0  0  0  0  0  0  0  0  0
   -0.6640    2.8600    0.0320 C   0  0  0  0  0  0  0  0  0  0  0  0
   -1.8010    3.6610    0.1990 C   0  0  0  0  0  0  0  0  0  0  0  0
   -1.5840    5.0020    0.0450 O   0  0  0  0  0  0  0  0  0  0  0  0
   -2.6890    5.8830    0.2160 C   0  0  0  0  0  0  0  0  0  0  0  0
   -3.0110    3.0530    0.5050 C   0  0  0  0  0  0  0  0  0  0  0  0
   -3.0820    1.6580    0.6140 C   0  0  0  0  0  0  0  0  0  0  0  0
    0.5620    0.6860    0.0330 C   0  0  0  0  0  0  0  0  0  0  0  0
    1.3570    0.7780   -1.1200 C   0  0  0  0  0  0  0  0  0  0  0  0
    2.5310    0.0240   -1.2570 C   0  0  0  0  0  0  0  0  0  0  0  0
    2.9460   -0.8590   -0.2490 C   0  0  0  0  0  0  0  0  0  0  0  0
    2.1610   -0.9440    0.9110 C   0  0  0  0  0  0  0  0  0  0  0  0
    1.0000   -0.1740    1.0520 C   0  0  0  0  0  0  0  0  0  0  0  0
    4.2530   -1.6390   -0.3440 C   0  0  1  0  0  0  0  0  0  0  0  0
    4.2750   -2.5730   -1.4720 N   0  0  0  0  0  0  0  0  0  0  0  0
    5.4350   -0.6620   -0.3560 C   0  0  0  0  0  0  0  0  0  0  0  0
   -1.7360   -1.4750   -0.5460 C   0  0  0  0  0  0  0  0  0  0  0  0
   -1.8890   -2.8610   -0.4620 C   0  0  0  0  0  0  0  0  0  0  0  0
   -3.2560   -3.0590    2.6510 H   0  0  0  0  0  0  0  0  0  0  0  0
   -2.9770   -0.6260    2.5010 H   0  0  0  0  0  0  0  0  0  0  0  0
    0.2820    3.3540   -0.1880 H   0  0  0  0  0  0  0  0  0  0  0  0
   -2.3190    6.9050    0.0780 H   0  0  0  0  0  0  0  0  0  0  0  0
   -3.1030    5.8170    1.2270 H   0  0  0  0  0  0  0  0  0  0  0  0
   -3.4620    5.7080   -0.5400 H   0  0  0  0  0  0  0  0  0  0  0  0
   -3.9190    3.6270    0.6580 H   0  0  0  0  0  0  0  0  0  0  0  0
   -4.0480    1.2050    0.8310 H   0  0  0  0  0  0  0  0  0  0  0  0
    1.0580    1.4360   -1.9340 H   0  0  0  0  0  0  0  0  0  0  0  0
    3.1270    0.1510   -2.1570 H   0  0  0  0  0  0  0  0  0  0  0  0
    2.4500   -1.6010    1.7290 H   0  0  0  0  0  0  0  0  0  0  0  0
    0.4220   -0.2620    1.9730 H   0  0  0  0  0  0  0  0  0  0  0  0
    4.3410   -2.2730    0.5460 H   0  0  0  0  0  0  0  0  0  0  0  0
    4.1610   -2.1070   -2.3610 H   0  0  0  0  0  0  0  0  0  0  0  0
    6.4020   -1.1670   -0.3320 H   0  0  0  0  0  0  0  0  0  0  0  0
    5.4130   -0.0130    0.5230 H   0  0  0  0  0  0  0  0  0  0  0  0
    5.4290   -0.0430   -1.2590 H   0  0  0  0  0  0  0  0  0  0  0  0
   -1.2800   -1.0550   -1.4410 H   0  0  0  0  0  0  0  0  0  0  0  0
   -1.5420   -3.4810   -1.2870 H   0  0  0  0  0  0  0  0  0  0  0  0
    5.3300   -3.4860   -1.5150 C   0  0  0  0  0  0  0  0  0  0  0  0
    6.4410   -3.2220   -1.0740 O   0  0  0  0  0  0  0  0  0  0  0  0
    5.0890   -4.8430   -2.0140 C   0  0  0  0  0  0  0  0  0  0  0  0
    3.8400   -5.2790   -2.4480 C   0  0  0  0  0  0  0  0  0  0  0  0
    3.6690   -6.6040   -2.8530 C   0  0  0  0  0  0  0  0  0  0  0  0
    4.7320   -7.5350   -2.8090 C   0  0  0  0  0  0  0  0  0  0  0  0
    4.5580   -8.9300   -3.2700 C   0  0  0  0  0  0  0  0  0  0  0  0
    5.3680   -9.5040   -4.2850 C   0  0  0  0  0  0  0  0  0  0  0  0
    5.1330  -10.8780   -4.6190 C   0  0  0  0  0  0  0  0  0  0  0  0
    4.1440  -11.6360   -4.0060 C   0  0  0  0  0  0  0  0  0  0  0  0
    4.0680  -12.9330   -4.4500 O   0  0  0  0  0  0  0  0  0  0  0  0
    3.0730  -13.7840   -3.8810 C   0  0  0  0  0  0  0  0  0  0  0  0
    3.3370  -11.0580   -3.0440 C   0  0  0  0  0  0  0  0  0  0  0  0
    3.5400   -9.7110   -2.6750 C   0  0  0  0  0  0  0  0  0  0  0  0
    6.4100   -8.7490   -5.0110 C   0  0  0  0  0  0  0  0  0  0  0  0
    7.7480   -9.1730   -5.0260 C   0  0  0  0  0  0  0  0  0  0  0  0
    8.7460   -8.4260   -5.6750 C   0  0  0  0  0  0  0  0  0  0  0  0
    8.4360   -7.2250   -6.3300 C   0  0  0  0  0  0  0  0  0  0  0  0
    7.0990   -6.8040   -6.3300 C   0  0  0  0  0  0  0  0  0  0  0  0
    6.1040   -7.5560   -5.6880 C   0  0  0  0  0  0  0  0  0  0  0  0
    9.4780   -6.4380   -7.1220 C   0  0  1  0  0  0  0  0  0  0  0  0
   10.5750   -5.9400   -6.2910 N   0  0  0  0  0  0  0  0  0  0  0  0
    9.9600   -7.2720   -8.3120 C   0  0  0  0  0  0  0  0  0  0  0  0
    5.9710   -7.0800   -2.3220 C   0  0  0  0  0  0  0  0  0  0  0  0
    6.1550   -5.7530   -1.9450 C   0  0  0  0  0  0  0  0  0  0  0  0
    2.9860   -4.6030   -2.4660 H   0  0  0  0  0  0  0  0  0  0  0  0
    2.6930   -6.9240   -3.2130 H   0  0  0  0  0  0  0  0  0  0  0  0
    5.7530  -11.3280   -5.3930 H   0  0  0  0  0  0  0  0  0  0  0  0
    3.1840  -14.7690   -4.3390 H   0  0  0  0  0  0  0  0  0  0  0  0
    2.0650  -13.4230   -4.1100 H   0  0  0  0  0  0  0  0  0  0  0  0
    3.2150  -13.9030   -2.8020 H   0  0  0  0  0  0  0  0  0  0  0  0
    2.5450  -11.6080   -2.5550 H   0  0  0  0  0  0  0  0  0  0  0  0
    2.8980   -9.2790   -1.9220 H   0  0  0  0  0  0  0  0  0  0  0  0
    8.0280  -10.0960   -4.5220 H   0  0  0  0  0  0  0  0  0  0  0  0
    9.7610   -8.8120   -5.6790 H   0  0  0  0  0  0  0  0  0  0  0  0
    6.8030   -5.8910   -6.8430 H   0  0  0  0  0  0  0  0  0  0  0  0
    5.0780   -7.1940   -5.7120 H   0  0  0  0  0  0  0  0  0  0  0  0
    8.9960   -5.5320   -7.5160 H   0  0  0  0  0  0  0  0  0  0  0  0
   11.0700   -6.6880   -5.8190 H   0  0  0  0  0  0  0  0  0  0  0  0
   10.6190   -6.7090   -8.9750 H   0  0  0  0  0  0  0  0  0  0  0  0
    9.1180   -7.5970   -8.9300 H   0  0  0  0  0  0  0  0  0  0  0  0
   10.5200   -8.1520   -7.9800 H   0  0  0  0  0  0  0  0  0  0  0  0
    6.8150   -7.7710   -2.2520 H   0  0  0  0  0  0  0  0  0  0  0  0
    7.1310   -5.4340   -1.5840 H   0  0  0  0  0  0  0  0  0  0  0  0
   11.4620   -5.0460   -6.8760 C   0  0  0  0  0  0  0  0  0  0  0  0
   11.7760   -5.0790   -8.0600 O   0  0  0  0  0  0  0  0  0  0  0  0
   11.9910   -3.9380   -6.0450 C   0  0  0  0  0  0  0  0  0  0  0  0
   11.6570   -3.7680   -4.7020 C   0  0  0  0  0  0  0  0  0  0  0  0
   12.1700   -2.6720   -3.9950 C   0  0  0  0  0  0  0  0  0  0  0  0
   13.0070   -1.7240   -4.6150 C   0  0  0  0  0  0  0  0  0  0  0  0
   13.5830   -0.5950   -3.8510 C   0  0  0  0  0  0  0  0  0  0  0  0
   14.9790   -0.3340   -3.7970 C   0  0  0  0  0  0  0  0  0  0  0  0
   15.4210    0.8160   -3.1030 C   0  0  0  0  0  0  0  0  0  0  0  0
   14.5370    1.6760   -2.4370 C   0  0  0  0  0  0  0  0  0  0  0  0
   15.1280    2.7340   -1.8060 O   0  0  0  0  0  0  0  0  0  0  0  0
   14.2880    3.6410   -1.0970 C   0  0  0  0  0  0  0  0  0  0  0  0
   13.1780    1.3930   -2.4650 C   0  0  0  0  0  0  0  0  0  0  0  0
   12.7090    0.2770   -3.1640 C   0  0  0  0  0  0  0  0  0  0  0  0
   15.9870   -1.2280   -4.4210 C   0  0  0  0  0  0  0  0  0  0  0  0
   16.9120   -0.7450   -5.3560 C   0  0  0  0  0  0  0  0  0  0  0  0
   17.8390   -1.5990   -5.9750 C   0  0  0  0  0  0  0  0  0  0  0  0
   17.8670   -2.9710   -5.6820 C   0  0  0  0  0  0  0  0  0  0  0  0
   16.9440   -3.4590   -4.7430 C   0  0  0  0  0  0  0  0  0  0  0  0
   16.0310   -2.6000   -4.1170 C   0  0  0  0  0  0  0  0  0  0  0  0
   18.9220   -3.9000   -6.2750 C   0  0  1  0  0  0  0  0  0  0  0  0
   18.8240   -4.0070   -7.7320 N   0  0  0  0  0  0  0  0  0  0  0  0
   20.3140   -3.4700   -5.7990 C   0  0  0  0  0  0  0  0  0  0  0  0
   13.2920   -1.8870   -5.9780 C   0  0  0  0  0  0  0  0  0  0  0  0
   12.8040   -2.9890   -6.6800 C   0  0  0  0  0  0  0  0  0  0  0  0
   10.9900   -4.4610   -4.1990 H   0  0  0  0  0  0  0  0  0  0  0  0
   11.9210   -2.5690   -2.9400 H   0  0  0  0  0  0  0  0  0  0  0  0
   16.4850    1.0400   -3.0600 H   0  0  0  0  0  0  0  0  0  0  0  0
   14.9270    4.4230   -0.6730 H   0  0  0  0  0  0  0  0  0  0  0  0
   13.7780    3.1460   -0.2640 H   0  0  0  0  0  0  0  0  0  0  0  0
   13.5710    4.1290   -1.7650 H   0  0  0  0  0  0  0  0  0  0  0  0
   12.4500    2.0230   -1.9630 H   0  0  0  0  0  0  0  0  0  0  0  0
   11.6380    0.0860   -3.1840 H   0  0  0  0  0  0  0  0  0  0  0  0
   16.9170    0.3110   -5.6200 H   0  0  0  0  0  0  0  0  0  0  0  0
   18.5520   -1.1710   -6.6740 H   0  0  0  0  0  0  0  0  0  0  0  0
   16.9340   -4.5130   -4.4740 H   0  0  0  0  0  0  0  0  0  0  0  0
   15.3380   -3.0180   -3.3890 H   0  0  0  0  0  0  0  0  0  0  0  0
   18.7350   -4.9180   -5.9050 H   0  0  0  0  0  0  0  0  0  0  0  0
   18.9610   -3.1110   -8.1830 H   0  0  0  0  0  0  0  0  0  0  0  0
   21.1010   -4.1510   -6.1260 H   0  0  0  0  0  0  0  0  0  0  0  0
   20.3620   -3.4520   -4.7070 H   0  0  0  0  0  0  0  0  0  0  0  0
   20.5770   -2.4790   -6.1830 H   0  0  0  0  0  0  0  0  0  0  0  0
   13.9170   -1.1700   -6.5060 H   0  0  0  0  0  0  0  0  0  0  0  0
   13.0580   -3.0950   -7.7340 H   0  0  0  0  0  0  0  0  0  0  0  0
   19.5990   -4.9920   -8.3470 C   0  0  0  0  0  0  0  0  0  0  0  0
   20.6870   -5.3460   -7.9240 O   0  0  0  0  0  0  0  0  0  0  0  0
   19.0240   -5.7040   -9.5120 C   0  0  0  0  0  0  0  0  0  0  0  0
   17.7680   -5.4170  -10.0370 C   0  0  0  0  0  0  0  0  0  0  0  0
   17.2860   -6.1580  -11.1260 C   0  0  0  0  0  0  0  0  0  0  0  0
   18.0360   -7.2110  -11.6840 C   0  0  0  0  0  0  0  0  0  0  0  0
   17.5420   -7.9690  -12.8560 C   0  0  0  0  0  0  0  0  0  0  0  0
   18.2870   -8.0960  -14.0610 C   0  0  0  0  0  0  0  0  0  0  0  0
   17.7530   -8.9010  -15.0930 C   0  0  0  0  0  0  0  0  0  0  0  0
   16.5110   -9.5420  -14.9840 C   0  0  0  0  0  0  0  0  0  0  0  0
   16.1400  -10.2730  -16.0790 O   0  0  0  0  0  0  0  0  0  0  0  0
   14.8820  -10.9400  -16.0420 C   0  0  0  0  0  0  0  0  0  0  0  0
   15.7760   -9.3870  -13.8160 C   0  0  0  0  0  0  0  0  0  0  0  0
   16.2880   -8.6120  -12.7670 C   0  0  0  0  0  0  0  0  0  0  0  0
   19.5850   -7.4070  -14.2780 C   0  0  0  0  0  0  0  0  0  0  0  0
   20.7430   -8.1210  -14.6300 C   0  0  0  0  0  0  0  0  0  0  0  0
   21.9830   -7.4800  -14.7920 C   0  0  0  0  0  0  0  0  0  0  0  0
   22.1110   -6.0960  -14.6130 C   0  0  0  0  0  0  0  0  0  0  0  0
   20.9520   -5.3750  -14.2770 C   0  0  0  0  0  0  0  0  0  0  0  0
   19.7150   -6.0180  -14.1190 C   0  0  0  0  0  0  0  0  0  0  0  0
   23.4200   -5.3550  -14.8550 C   0  0  1  0  0  0  0  0  0  0  0  0
   24.5540   -5.8400  -14.0710 N   0  0  0  0  0  0  0  0  0  0  0  0
   23.8170   -5.4280  -16.3370 C   0  0  0  0  0  0  0  0  0  0  0  0
   19.2820   -7.5100  -11.1130 C   0  0  0  0  0  0  0  0  0  0  0  0
   19.7780   -6.7560  -10.0500 C   0  0  0  0  0  0  0  0  0  0  0  0
   17.1510   -4.6300   -9.6150 H   0  0  0  0  0  0  0  0  0  0  0  0
   16.3190   -5.8960  -11.5480 H   0  0  0  0  0  0  0  0  0  0  0  0
   18.3130   -9.0220  -16.0190 H   0  0  0  0  0  0  0  0  0  0  0  0
   14.7570  -11.4640  -16.9960 H   0  0  0  0  0  0  0  0  0  0  0  0
   14.0540  -10.2290  -15.9480 H   0  0  0  0  0  0  0  0  0  0  0  0
   14.8500  -11.6920  -15.2470 H   0  0  0  0  0  0  0  0  0  0  0  0
   14.8070   -9.8550  -13.6810 H   0  0  0  0  0  0  0  0  0  0  0  0
   15.7000   -8.5230  -11.8540 H   0  0  0  0  0  0  0  0  0  0  0  0
   20.6900   -9.2000  -14.7670 H   0  0  0  0  0  0  0  0  0  0  0  0
   22.8440   -8.0790  -15.0730 H   0  0  0  0  0  0  0  0  0  0  0  0
   20.9910   -4.2950  -14.1400 H   0  0  0  0  0  0  0  0  0  0  0  0
   18.8460   -5.4200  -13.8460 H   0  0  0  0  0  0  0  0  0  0  0  0
   23.2700   -4.2980  -14.6020 H   0  0  0  0  0  0  0  0  0  0  0  0
   24.8120   -6.8030  -14.2250 H   0  0  0  0  0  0  0  0  0  0  0  0
   24.7390   -4.8630  -16.5180 H   0  0  0  0  0  0  0  0  0  0  0  0
   23.0380   -5.0230  -16.9880 H   0  0  0  0  0  0  0  0  0  0  0  0
   24.0200   -6.4620  -16.6430 H   0  0  0  0  0  0  0  0  0  0  0  0
   19.8940   -8.3220  -11.5060 H   0  0  0  0  0  0  0  0  0  0  0  0
   20.7570   -7.0010   -9.6440 H   0  0  0  0  0  0  0  0  0  0  0  0
   -2.3740   -6.6820    2.2200 C   0  0  0  0  0  0  0  0  0  0  0  0
   -2.9010   -5.3860    1.9410 O   0  0  0  0  0  0  0  0  0  0  0  0
   -2.5010   -7.3840    1.3880 H   0  0  0  0  0  0  0  0  0  0  0  0
   -2.8730   -7.0950    3.0990 H   0  0  0  0  0  0  0  0  0  0  0  0
   -1.3110   -6.5610    2.4490 H   0  0  0  0  0  0  0  0  0  0  0  0
   29.0740   -5.8520  -15.0250 C   0  0  0  0  0  0  0  0  0  0  0  0
   28.0230   -4.8520  -14.5040 C   0  0  0  0  0  0  0  0  0  0  0  0
   28.5030   -4.3110  -13.1540 C   0  0  0  0  0  0  0  0  0  0  0  0
   27.9140   -3.7160  -15.5370 C   0  0  0  0  0  0  0  0  0  0  0  0
   26.7810   -5.6120  -14.3430 O   0  0  0  0  0  0  0  0  0  0  0  0
   25.6320   -4.9830  -13.9770 C   0  0  0  0  0  0  0  0  0  0  0  0
   25.5300   -3.7920  -13.7210 O   0  0  0  0  0  0  0  0  0  0  0  0
   30.0590   -5.3820  -15.1330 H   0  0  0  0  0  0  0  0  0  0  0  0
   29.1760   -6.7060  -14.3470 H   0  0  0  0  0  0  0  0  0  0  0  0
   28.7860   -6.2580  -16.0020 H   0  0  0  0  0  0  0  0  0  0  0  0
   28.5410   -5.1120  -12.4080 H   0  0  0  0  0  0  0  0  0  0  0  0
   27.8310   -3.5420  -12.7630 H   0  0  0  0  0  0  0  0  0  0  0  0
   29.5000   -3.8630  -13.2370 H   0  0  0  0  0  0  0  0  0  0  0  0
   27.5240   -4.0800  -16.4930 H   0  0  0  0  0  0  0  0  0  0  0  0
   27.2470   -2.9150  -15.2030 H   0  0  0  0  0  0  0  0  0  0  0  0
   28.8930   -3.2550  -15.7210 H   0  0  0  0  0  0  0  0  0  0  0  0
  1178  1  0  0  0  0
  1  2  2  0  0  0  0
  1  3  1  0  0  0  0
  3  4  2  0  0  0  0
  4 26  1  0  0  0  0
  4  5  1  0  0  0  0
  5 27  1  0  0  0  0
  5  6  2  0  0  0  0
  6  7  1  0  0  0  0
  7 14  2  0  0  0  0
  7  8  1  0  0  0  0
  8  9  2  0  0  0  0
  9 10  1  0  0  0  0
 10 13  2  0  0  0  0
 10 11  1  0  0  0  0
 11 12  1  0  0  0  0
 12 30  1  0  0  0  0
 13 14  1  0  0  0  0
 13 32  1  0  0  0  0
 14 33  1  0  0  0  0
  8 15  1  0  0  0  0
 15 20  1  0  0  0  0
 15 16  2  0  0  0  0
 16 17  1  0  0  0  0
 17 18  2  0  0  0  0
 18 19  1  0  0  0  0
 19 20  2  0  0  0  0
 19 36  1  0  0  0  0
 20 37  1  0  0  0  0
 18 21  1  0  0  0  0
 21 38  1  0  0  0  0
 21 22  1  0  0  0  0
 21 23  1  0  0  0  0
 23 40  1  0  0  0  0
 23 41  1  0  0  0  0
 24 25  2  0  0  0  0
  6 24  1  0  0  0  0
  3 25  1  0  0  0  0
  9 28  1  0  0  0  0
 12 29  1  0  0  0  0
 12 31  1  0  0  0  0
 16 34  1  0  0  0  0
 17 35  1  0  0  0  0
 22 39  1  0  0  0  0
 23 42  1  0  0  0  0
 24 43  1  0  0  0  0
 25 44  1  0  0  0  0
 22 45  1  0  0  0  0
 45 46  2  0  0  0  0
 47 69  1  0  0  0  0
 45 47  1  0  0  0  0
 47 48  2  0  0  0  0
 49 50  2  0  0  0  0
 48 49  1  0  0  0  0
 50 68  1  0  0  0  0
 50 51  1  0  0  0  0
 51 58  2  0  0  0  0
 51 52  1  0  0  0  0
 52 53  2  0  0  0  0
 53 54  1  0  0  0  0
 54 57  2  0  0  0  0
 54 55  1  0  0  0  0
 55 56  1  0  0  0  0
 56 75  1  0  0  0  0
 57 58  1  0  0  0  0
 57 76  1  0  0  0  0
 58 77  1  0  0  0  0
 52 59  1  0  0  0  0
 59 60  2  0  0  0  0
 60 78  1  0  0  0  0
 60 61  1  0  0  0  0
 61 62  2  0  0  0  0
 62 63  1  0  0  0  0
 63 64  2  0  0  0  0
 59 64  1  0  0  0  0
 65 82  1  0  0  0  0
 62 65  1  0  0  0  0
 65 66  1  0  0  0  0
 66 83  1  0  0  0  0
 67 86  1  0  0  0  0
 65 67  1  0  0  0  0
 68 87  1  0  0  0  0
 68 69  2  0  0  0  0
 69 88  1  0  0  0  0
 48 70  1  0  0  0  0
 49 71  1  0  0  0  0
 53 72  1  0  0  0  0
 56 73  1  0  0  0  0
 56 74  1  0  0  0  0
 61 79  1  0  0  0  0
 63 80  1  0  0  0  0
 64 81  1  0  0  0  0
 67 84  1  0  0  0  0
 67 85  1  0  0  0  0
 66 89  1  0  0  0  0
 89 91  1  0  0  0  0
 89 90  2  0  0  0  0
 91 92  2  0  0  0  0
 92114  1  0  0  0  0
 92 93  1  0  0  0  0
 93115  1  0  0  0  0
 93 94  2  0  0  0  0
 94 95  1  0  0  0  0
 95 96  1  0  0  0  0
 95102  2  0  0  0  0
 96 97  2  0  0  0  0
 97116  1  0  0  0  0
 97 98  1  0  0  0  0
 98 99  1  0  0  0  0
 99100  1  0  0  0  0
100117  1  0  0  0  0
100118  1  0  0  0  0
 98101  2  0  0  0  0
101120  1  0  0  0  0
101102  1  0  0  0  0
103108  1  0  0  0  0
 96103  1  0  0  0  0
103104  2  0  0  0  0
105106  2  0  0  0  0
104105  1  0  0  0  0
106107  1  0  0  0  0
107124  1  0  0  0  0
107108  2  0  0  0  0
108125  1  0  0  0  0
109126  1  0  0  0  0
109111  1  0  0  0  0
106109  1  0  0  0  0
109110  1  0  0  0  0
111129  1  0  0  0  0
 94112  1  0  0  0  0
 91113  1  0  0  0  0
112113  2  0  0  0  0
100119  1  0  0  0  0
102121  1  0  0  0  0
104122  1  0  0  0  0
105123  1  0  0  0  0
110127  1  0  0  0  0
111128  1  0  0  0  0
111130  1  0  0  0  0
112131  1  0  0  0  0
113132  1  0  0  0  0
133134  2  0  0  0  0
110133  1  0  0  0  0
133135  1  0  0  0  0
136158  1  0  0  0  0
135136  2  0  0  0  0
136137  1  0  0  0  0
137138  2  0  0  0  0
138156  1  0  0  0  0
139146  1  0  0  0  0
138139  1  0  0  0  0
139140  2  0  0  0  0
141142  2  0  0  0  0
140141  1  0  0  0  0
142145  1  0  0  0  0
143144  1  0  0  0  0
142143  1  0  0  0  0
144162  1  0  0  0  0
144163  1  0  0  0  0
145164  1  0  0  0  0
145146  2  0  0  0  0
146165  1  0  0  0  0
147152  1  0  0  0  0
140147  1  0  0  0  0
147148  2  0  0  0  0
148149  1  0  0  0  0
149150  2  0  0  0  0
150151  1  0  0  0  0
151168  1  0  0  0  0
151152  2  0  0  0  0
152169  1  0  0  0  0
150153  1  0  0  0  0
153170  1  0  0  0  0
153154  1  0  0  0  0
154187  1  0  0  0  0
153155  1  0  0  0  0
156157  2  0  0  0  0
157176  1  0  0  0  0
135157  1  0  0  0  0
137159  1  0  0  0  0
141160  1  0  0  0  0
144161  1  0  0  0  0
148166  1  0  0  0  0
149167  1  0  0  0  0
154171  1  0  0  0  0
155172  1  0  0  0  0
155173  1  0  0  0  0
155174  1  0  0  0  0
156175  1  0  0  0  0
177181  1  0  0  0  0
177180  1  0  0  0  0
177178  1  0  0  0  0
177179  1  0  0  0  0
182183  1  0  0  0  0
182190  1  0  0  0  0
183186  1  0  0  0  0
183184  1  0  0  0  0
184193  1  0  0  0  0
184192  1  0  0  0  0
185196  1  0  0  0  0
183185  1  0  0  0  0
186187  1  0  0  0  0
187188  2  0  0  0  0
182189  1  0  0  0  0
182191  1  0  0  0  0
184194  1  0  0  0  0
185195  1  0  0  0  0
185197  1  0  0  0  0
M  END
> <atom.dprop.PartialCharge>
0.646770 -0.537360 -0.137490 -0.077160 -0.130230 -0.000390 -0.079920 0.007570 -0.144230 0.129270 -0.323440 0.111820 -0.204570 -0.081690 -0.039810 -0.110200 -0.121910 -0.095150 -0.121910 -0.110200 0.152030 -0.571560 -0.110280 -0.130230 -0.077160 0.152440 0.143520 0.158730 0.046310 0.046310 0.046310 0.141970 0.140530 0.139460 0.135530 0.135530 0.139460 0.082280 0.312590 0.046080 0.046080 0.046080 0.143520 0.152440 0.676120 -0.614060 -0.143520 -0.093530 -0.125220 -0.008220 -0.076280 0.007940 -0.145300 0.128970 -0.324770 0.112980 -0.201560 -0.083520 -0.038490 -0.109620 -0.122360 -0.094650 -0.122360 -0.109620 0.152620 -0.573370 -0.108610 -0.125220 -0.093530 0.147520 0.142420 0.157630 0.045780 0.045780 0.045780 0.141470 0.138400 0.139570 0.133500 0.133500 0.139570 0.084990 0.310360 0.044500 0.044500 0.044500 0.142420 0.147520 0.675670 -0.608200 -0.142750 -0.092030 -0.123770 -0.010330 -0.075390 0.011220 -0.145450 0.125990 -0.324780 0.112530 -0.206570 -0.084950 -0.044640 -0.111550 -0.119320 -0.089580 -0.119320 -0.111550 0.150870 -0.570350 -0.111980 -0.123770 -0.092030 0.147140 0.141960 0.157940 0.045280 0.045280 0.045280 0.139770 0.138510 0.134330 0.138890 0.138890 0.134330 0.087060 0.314910 0.044540 0.044540 0.044540 0.141960 0.147140 0.676810 -0.609770 -0.138850 -0.086990 -0.124450 -0.016000 -0.068330 0.009300 -0.147860 0.122690 -0.327210 0.113720 -0.205600 -0.084800 -0.043810 -0.109140 -0.119500 -0.101250 -0.119500 -0.109140 0.148160 -0.539450 -0.097820 -0.124450 -0.086990 0.149310 0.139540 0.155810 0.044230 0.044230 0.044230 0.137960 0.141130 0.133710 0.134750 0.134750 0.133710 0.091380 0.319080 0.044900 0.044900 0.044900 0.139540 0.149310 0.125070 -0.430420 0.050680 0.050680 0.050680 -0.115860 0.189240 -0.115860 -0.115860 -0.446200 0.748200 -0.586490 0.051830 0.051830 0.051830 0.051830 0.051830 0.051830 0.051830 0.051830 0.051830

$$$$
