pop_tetramer.pdb
  -OEChem-11242518043D

197208  0     1  0  0  0  0  0999 V2000
   -2.3150   -4.9270    0.7630 C   0  0  0  0  0  0  0  0  0  0  0  0
   -2.0160   -5.6490   -0.1710 O   0  0  0  0  0  0  0  0  0  0  0  0
   -2.3550   -3.4430    0.6720 C   0  0  0  0  0  0  0  0  0  0  0  0
   -2.7640   -2.6290    1.7340 C   0  0  0  0  0  0  0  0  0  0  0  0
   -2.6690   -1.2360    1.6260 C   0  0  0  0  0  0  0  0  0  0  0  0
   -2.1650   -0.6330    0.4610 C   0  0  0  0  0  0  0  0  0  0  0  0
   -1.9680    0.8290    0.3880 C   0  0  0  0  0  0  0  0  0  0  0  0
   -0.7030    1.4240    0.1360 C   0  0  0  0  0  0  0  0  0  0  0  0
   -0.6320    2.8340    0.0500 C   0  0  0  0  0  0  0  0  0  0  0  0
   -1.7590    3.6500    0.2120 C   0  0  0  0  0  0  0  0  0  0  0  0
   -1.5270    4.9930    0.0900 O   0  0  0  0  0  0  0  0  0  0  0  0
   -2.6490    5.8590    0.2340 C   0  0  0  0  0  0  0  0  0  0  0  0
   -2.9870    3.0590    0.4770 C   0  0  0  0  0  0  0  0  0  0  0  0
   -3.0870    1.6670    0.5650 C   0  0  0  0  0  0  0  0  0  0  0  0
    0.5470    0.6370   -0.0090 C   0  0  0  0  0  0  0  0  0  0  0  0
    1.3250    0.7080   -1.1780 C   0  0  0  0  0  0  0  0  0  0  0  0
    2.5220   -0.0130   -1.3020 C   0  0  0  0  0  0  0  0  0  0  0  0
    2.9790   -0.8210   -0.2530 C   0  0  0  0  0  0  0  0  0  0  0  0
    2.1890   -0.9240    0.9000 C   0  0  0  0  0  0  0  0  0  0  0  0
    0.9980   -0.2030    1.0210 C   0  0  0  0  0  0  0  0  0  0  0  0
    4.3250   -1.5240   -0.2920 C   0  0  1  0  0  0  0  0  0  0  0  0
    4.3630   -2.5760   -1.2990 N   0  0  0  0  0  0  0  0  0  0  0  0
    5.4640   -0.5070   -0.4150 C   0  0  0  0  0  0  0  0  0  0  0  0
   -1.8180   -1.4620   -0.6170 C   0  0  0  0  0  0  0  0  0  0  0  0
   -1.9060   -2.8520   -0.5140 C   0  0  0  0  0  0  0  0  0  0  0  0
   -3.1260   -3.0600    2.6640 H   0  0  0  0  0  0  0  0  0  0  0  0
   -2.9530   -0.6210    2.4780 H   0  0  0  0  0  0  0  0  0  0  0  0
    0.3290    3.3130   -0.1340 H   0  0  0  0  0  0  0  0  0  0  0  0
   -2.2980    6.8890    0.1180 H   0  0  0  0  0  0  0  0  0  0  0  0
   -3.0920    5.7700    1.2320 H   0  0  0  0  0  0  0  0  0  0  0  0
   -3.3950    5.6740   -0.5460 H   0  0  0  0  0  0  0  0  0  0  0  0
   -3.8910    3.6430    0.6140 H   0  0  0  0  0  0  0  0  0  0  0  0
   -4.0640    1.2290    0.7610 H   0  0  0  0  0  0  0  0  0  0  0  0
    1.0000    1.3350   -2.0060 H   0  0  0  0  0  0  0  0  0  0  0  0
    3.1070    0.0850   -2.2150 H   0  0  0  0  0  0  0  0  0  0  0  0
    2.5080   -1.5490    1.7320 H   0  0  0  0  0  0  0  0  0  0  0  0
    0.4230   -0.3030    1.9390 H   0  0  0  0  0  0  0  0  0  0  0  0
    4.4640   -2.0370    0.6690 H   0  0  0  0  0  0  0  0  0  0  0  0
    3.5510   -2.6990   -1.8830 H   0  0  0  0  0  0  0  0  0  0  0  0
    6.4450   -0.9840   -0.3370 H   0  0  0  0  0  0  0  0  0  0  0  0
    5.3980    0.2320    0.3920 H   0  0  0  0  0  0  0  0  0  0  0  0
    5.4390    0.0310   -1.3680 H   0  0  0  0  0  0  0  0  0  0  0  0
   -1.4330   -1.0280   -1.5380 H   0  0  0  0  0  0  0  0  0  0  0  0
   -1.5870   -3.4680   -1.3520 H   0  0  0  0  0  0  0  0  0  0  0  0
    5.3120   -3.5750   -1.1810 C   0  0  0  0  0  0  0  0  0  0  0  0
    6.3140   -3.4440   -0.4740 O   0  0  0  0  0  0  0  0  0  0  0  0
    5.0840   -4.8860   -1.8510 C   0  0  0  0  0  0  0  0  0  0  0  0
    3.8500   -5.2840   -2.3730 C   0  0  0  0  0  0  0  0  0  0  0  0
    3.6750   -6.5970   -2.8380 C   0  0  0  0  0  0  0  0  0  0  0  0
    4.7210   -7.5350   -2.7880 C   0  0  0  0  0  0  0  0  0  0  0  0
    4.5360   -8.9220   -3.2640 C   0  0  0  0  0  0  0  0  0  0  0  0
    5.3670   -9.5090   -4.2560 C   0  0  0  0  0  0  0  0  0  0  0  0
    5.1340  -10.8520   -4.6200 C   0  0  0  0  0  0  0  0  0  0  0  0
    4.1180  -11.6150   -4.0350 C   0  0  0  0  0  0  0  0  0  0  0  0
    4.0250  -12.8960   -4.5020 O   0  0  0  0  0  0  0  0  0  0  0  0
    3.0750  -13.7450   -3.8700 C   0  0  0  0  0  0  0  0  0  0  0  0
    3.3070  -11.0340   -3.0660 C   0  0  0  0  0  0  0  0  0  0  0  0
    3.5150   -9.7050   -2.6870 C   0  0  0  0  0  0  0  0  0  0  0  0
    6.4460   -8.7600   -4.9390 C   0  0  0  0  0  0  0  0  0  0  0  0
    7.7840   -9.1870   -4.8810 C   0  0  0  0  0  0  0  0  0  0  0  0
    8.8040   -8.4690   -5.5210 C   0  0  0  0  0  0  0  0  0  0  0  0
    8.5100   -7.3090   -6.2500 C   0  0  0  0  0  0  0  0  0  0  0  0
    7.1800   -6.8650   -6.2850 C   0  0  0  0  0  0  0  0  0  0  0  0
    6.1650   -7.5840   -5.6490 C   0  0  0  0  0  0  0  0  0  0  0  0
    9.5390   -6.6040   -7.1120 C   0  0  1  0  0  0  0  0  0  0  0  0
   10.6440   -6.0170   -6.3610 N   0  0  0  0  0  0  0  0  0  0  0  0
   10.0330   -7.5440   -8.2150 C   0  0  0  0  0  0  0  0  0  0  0  0
    5.9530   -7.1190   -2.2650 C   0  0  0  0  0  0  0  0  0  0  0  0
    6.1370   -5.8110   -1.8180 C   0  0  0  0  0  0  0  0  0  0  0  0
    2.9960   -4.6170   -2.3920 H   0  0  0  0  0  0  0  0  0  0  0  0
    2.7030   -6.8910   -3.2310 H   0  0  0  0  0  0  0  0  0  0  0  0
    5.7490  -11.3180   -5.3880 H   0  0  0  0  0  0  0  0  0  0  0  0
    3.1830  -14.7470   -4.2960 H   0  0  0  0  0  0  0  0  0  0  0  0
    2.0530  -13.4070   -4.0690 H   0  0  0  0  0  0  0  0  0  0  0  0
    3.2670  -13.8200   -2.7940 H   0  0  0  0  0  0  0  0  0  0  0  0
    2.5050  -11.5820   -2.5820 H   0  0  0  0  0  0  0  0  0  0  0  0
    2.8770   -9.2800   -1.9130 H   0  0  0  0  0  0  0  0  0  0  0  0
    8.0440  -10.0930   -4.3380 H   0  0  0  0  0  0  0  0  0  0  0  0
    9.8220   -8.8500   -5.4780 H   0  0  0  0  0  0  0  0  0  0  0  0
    6.9110   -5.9670   -6.8390 H   0  0  0  0  0  0  0  0  0  0  0  0
    5.1440   -7.2140   -5.7150 H   0  0  0  0  0  0  0  0  0  0  0  0
    9.0300   -5.7720   -7.6160 H   0  0  0  0  0  0  0  0  0  0  0  0
   10.8840   -6.3990   -5.4620 H   0  0  0  0  0  0  0  0  0  0  0  0
   10.7180   -7.0300   -8.8970 H   0  0  0  0  0  0  0  0  0  0  0  0
    9.1850   -7.9110   -8.8050 H   0  0  0  0  0  0  0  0  0  0  0  0
   10.5630   -8.4140   -7.8120 H   0  0  0  0  0  0  0  0  0  0  0  0
    6.7840   -7.8180   -2.1950 H   0  0  0  0  0  0  0  0  0  0  0  0
    7.1070   -5.5320   -1.4080 H   0  0  0  0  0  0  0  0  0  0  0  0
   11.3370   -4.9560   -6.9250 C   0  0  0  0  0  0  0  0  0  0  0  0
   11.0430   -4.5110   -8.0320 O   0  0  0  0  0  0  0  0  0  0  0  0
   12.4590   -4.3140   -6.1810 C   0  0  0  0  0  0  0  0  0  0  0  0
   13.0590   -4.8510   -5.0400 C   0  0  0  0  0  0  0  0  0  0  0  0
   14.1340   -4.1810   -4.4310 C   0  0  0  0  0  0  0  0  0  0  0  0
   14.6290   -2.9630   -4.9350 C   0  0  0  0  0  0  0  0  0  0  0  0
   15.7850   -2.2910   -4.2980 C   0  0  0  0  0  0  0  0  0  0  0  0
   17.0070   -2.0330   -4.9810 C   0  0  0  0  0  0  0  0  0  0  0  0
   18.0630   -1.4230   -4.2640 C   0  0  0  0  0  0  0  0  0  0  0  0
   17.9310   -1.0440   -2.9220 C   0  0  0  0  0  0  0  0  0  0  0  0
   19.0320   -0.4520   -2.3640 O   0  0  0  0  0  0  0  0  0  0  0  0
   18.9180   -0.0440   -1.0030 C   0  0  0  0  0  0  0  0  0  0  0  0
   16.7310   -1.2920   -2.2670 C   0  0  0  0  0  0  0  0  0  0  0  0
   15.6760   -1.9080   -2.9460 C   0  0  0  0  0  0  0  0  0  0  0  0
   17.2330   -2.4320   -6.3910 C   0  0  0  0  0  0  0  0  0  0  0  0
   17.5500   -1.4960   -7.3910 C   0  0  0  0  0  0  0  0  0  0  0  0
   17.7540   -1.8940   -8.7250 C   0  0  0  0  0  0  0  0  0  0  0  0
   17.6670   -3.2450   -9.0890 C   0  0  0  0  0  0  0  0  0  0  0  0
   17.3340   -4.1760   -8.0930 C   0  0  0  0  0  0  0  0  0  0  0  0
   17.1300   -3.7770   -6.7700 C   0  0  0  0  0  0  0  0  0  0  0  0
   18.0550   -3.7720  -10.4640 C   0  0  1  0  0  0  0  0  0  0  0  0
   17.2460   -3.2620  -11.5630 N   0  0  0  0  0  0  0  0  0  0  0  0
   19.5510   -3.5440  -10.7030 C   0  0  0  0  0  0  0  0  0  0  0  0
   14.0190   -2.4350   -6.0790 C   0  0  0  0  0  0  0  0  0  0  0  0
   12.9570   -3.1050   -6.6960 C   0  0  0  0  0  0  0  0  0  0  0  0
   12.7390   -5.7990   -4.6230 H   0  0  0  0  0  0  0  0  0  0  0  0
   14.6170   -4.6370   -3.5680 H   0  0  0  0  0  0  0  0  0  0  0  0
   19.0220   -1.2650   -4.7560 H   0  0  0  0  0  0  0  0  0  0  0  0
   19.8580    0.4360   -0.7110 H   0  0  0  0  0  0  0  0  0  0  0  0
   18.7690   -0.9080   -0.3460 H   0  0  0  0  0  0  0  0  0  0  0  0
   18.1180    0.6920   -0.8730 H   0  0  0  0  0  0  0  0  0  0  0  0
   16.5790   -1.0270   -1.2260 H   0  0  0  0  0  0  0  0  0  0  0  0
   14.7500   -2.0880   -2.4020 H   0  0  0  0  0  0  0  0  0  0  0  0
   17.6500   -0.4420   -7.1360 H   0  0  0  0  0  0  0  0  0  0  0  0
   18.0170   -1.1390   -9.4630 H   0  0  0  0  0  0  0  0  0  0  0  0
   17.2570   -5.2350   -8.3310 H   0  0  0  0  0  0  0  0  0  0  0  0
   16.8900   -4.5340   -6.0270 H   0  0  0  0  0  0  0  0  0  0  0  0
   17.8960   -4.8580  -10.4540 H   0  0  0  0  0  0  0  0  0  0  0  0
   16.6250   -2.4850  -11.4000 H   0  0  0  0  0  0  0  0  0  0  0  0
   19.8760   -3.9670  -11.6590 H   0  0  0  0  0  0  0  0  0  0  0  0
   20.1410   -4.0220   -9.9120 H   0  0  0  0  0  0  0  0  0  0  0  0
   19.8030   -2.4780  -10.7170 H   0  0  0  0  0  0  0  0  0  0  0  0
   14.3860   -1.5120   -6.5240 H   0  0  0  0  0  0  0  0  0  0  0  0
   12.5280   -2.6790   -7.6010 H   0  0  0  0  0  0  0  0  0  0  0  0
   17.1900   -4.0000  -12.7400 C   0  0  0  0  0  0  0  0  0  0  0  0
   17.8220   -5.0450  -12.8870 O   0  0  0  0  0  0  0  0  0  0  0  0
   16.3240   -3.5280  -13.8580 C   0  0  0  0  0  0  0  0  0  0  0  0
   15.8590   -2.2160  -13.9730 C   0  0  0  0  0  0  0  0  0  0  0  0
   15.0880   -1.8400  -15.0840 C   0  0  0  0  0  0  0  0  0  0  0  0
   14.7850   -2.7530  -16.1120 C   0  0  0  0  0  0  0  0  0  0  0  0
   14.0320   -2.3180  -17.3070 C   0  0  0  0  0  0  0  0  0  0  0  0
   14.5770   -2.3380  -18.6200 C   0  0  0  0  0  0  0  0  0  0  0  0
   13.7720   -1.8840  -19.6910 C   0  0  0  0  0  0  0  0  0  0  0  0
   12.4720   -1.4080  -19.4900 C   0  0  0  0  0  0  0  0  0  0  0  0
   11.8200   -0.9770  -20.6140 O   0  0  0  0  0  0  0  0  0  0  0  0
   10.5040   -0.4660  -20.4230 C   0  0  0  0  0  0  0  0  0  0  0  0
   11.9480   -1.3980  -18.2020 C   0  0  0  0  0  0  0  0  0  0  0  0
   12.7170   -1.8490  -17.1290 C   0  0  0  0  0  0  0  0  0  0  0  0
   15.9620   -2.7810  -18.9020 C   0  0  0  0  0  0  0  0  0  0  0  0
   16.2250   -3.8460  -19.7790 C   0  0  0  0  0  0  0  0  0  0  0  0
   17.5390   -4.2670  -20.0410 C   0  0  0  0  0  0  0  0  0  0  0  0
   18.6310   -3.6180  -19.4470 C   0  0  0  0  0  0  0  0  0  0  0  0
   18.3690   -2.5620  -18.5620 C   0  0  0  0  0  0  0  0  0  0  0  0
   17.0590   -2.1490  -18.3000 C   0  0  0  0  0  0  0  0  0  0  0  0
   20.0770   -3.9340  -19.8130 C   0  0  1  0  0  0  0  0  0  0  0  0
   20.4990   -5.2540  -19.3600 N   0  0  0  0  0  0  0  0  0  0  0  0
   20.2930   -3.6850  -21.3120 C   0  0  0  0  0  0  0  0  0  0  0  0
   15.2430   -4.0700  -15.9770 C   0  0  0  0  0  0  0  0  0  0  0  0
   16.0070   -4.4500  -14.8680 C   0  0  0  0  0  0  0  0  0  0  0  0
   16.1100   -1.4600  -13.2370 H   0  0  0  0  0  0  0  0  0  0  0  0
   14.7440   -0.8100  -15.1620 H   0  0  0  0  0  0  0  0  0  0  0  0
   14.1720   -1.8800  -20.7050 H   0  0  0  0  0  0  0  0  0  0  0  0
   10.0970   -0.1980  -21.4020 H   0  0  0  0  0  0  0  0  0  0  0  0
   10.5200    0.4400  -19.8060 H   0  0  0  0  0  0  0  0  0  0  0  0
    9.8460   -1.2260  -19.9870 H   0  0  0  0  0  0  0  0  0  0  0  0
   10.9440   -1.0440  -17.9930 H   0  0  0  0  0  0  0  0  0  0  0  0
   12.2770   -1.8330  -16.1330 H   0  0  0  0  0  0  0  0  0  0  0  0
   15.3990   -4.3550  -20.2730 H   0  0  0  0  0  0  0  0  0  0  0  0
   17.6960   -5.0850  -20.7430 H   0  0  0  0  0  0  0  0  0  0  0  0
   19.1870   -2.0230  -18.0880 H   0  0  0  0  0  0  0  0  0  0  0  0
   16.9020   -1.3150  -17.6190 H   0  0  0  0  0  0  0  0  0  0  0  0
   20.7230   -3.2310  -19.2720 H   0  0  0  0  0  0  0  0  0  0  0  0
   19.9930   -5.6790  -18.5940 H   0  0  0  0  0  0  0  0  0  0  0  0
   21.3500   -3.7220  -21.5890 H   0  0  0  0  0  0  0  0  0  0  0  0
   19.9300   -2.6880  -21.5920 H   0  0  0  0  0  0  0  0  0  0  0  0
   19.7690   -4.4220  -21.9300 H   0  0  0  0  0  0  0  0  0  0  0  0
   15.0290   -4.8100  -16.7460 H   0  0  0  0  0  0  0  0  0  0  0  0
   16.3670   -5.4760  -14.8060 H   0  0  0  0  0  0  0  0  0  0  0  0
   -2.4060   -6.7320    2.2560 C   0  0  0  0  0  0  0  0  0  0  0  0
   -2.5700   -5.3300    2.0340 O   0  0  0  0  0  0  0  0  0  0  0  0
   -2.7710   -7.3320    1.4170 H   0  0  0  0  0  0  0  0  0  0  0  0
   -2.9820   -7.0010    3.1450 H   0  0  0  0  0  0  0  0  0  0  0  0
   -1.3490   -6.9450    2.4470 H   0  0  0  0  0  0  0  0  0  0  0  0
   23.4330   -7.9930  -17.1380 C   0  0  0  0  0  0  0  0  0  0  0  0
   23.4560   -7.0650  -18.3620 C   0  0  0  0  0  0  0  0  0  0  0  0
   24.4410   -5.9230  -18.0520 C   0  0  0  0  0  0  0  0  0  0  0  0
   23.8960   -7.8750  -19.5880 C   0  0  0  0  0  0  0  0  0  0  0  0
   22.0870   -6.5990  -18.5270 O   0  0  0  0  0  0  0  0  0  0  0  0
   21.8200   -5.6080  -19.4170 C   0  0  0  0  0  0  0  0  0  0  0  0
   22.6520   -5.0610  -20.1280 O   0  0  0  0  0  0  0  0  0  0  0  0
   24.4290   -8.3960  -16.9270 H   0  0  0  0  0  0  0  0  0  0  0  0
   23.0840   -7.4520  -16.2510 H   0  0  0  0  0  0  0  0  0  0  0  0
   22.7440   -8.8320  -17.2850 H   0  0  0  0  0  0  0  0  0  0  0  0
   24.0450   -5.2670  -17.2690 H   0  0  0  0  0  0  0  0  0  0  0  0
   24.6360   -5.2970  -18.9270 H   0  0  0  0  0  0  0  0  0  0  0  0
   25.4140   -6.3060  -17.7240 H   0  0  0  0  0  0  0  0  0  0  0  0
   23.1980   -8.6980  -19.7840 H   0  0  0  0  0  0  0  0  0  0  0  0
   23.9110   -7.2610  -20.4930 H   0  0  0  0  0  0  0  0  0  0  0  0
   24.8970   -8.2990  -19.4520 H   0  0  0  0  0  0  0  0  0  0  0  0
  1178  1  0  0  0  0
  1  2  2  0  0  0  0
  1  3  1  0  0  0  0
  3  4  2  0  0  0  0
  4 26  1  0  0  0  0
  4  5  1  0  0  0  0
  5 27  1  0  0  0  0
  5  6  2  0  0  0  0
  6  7  1  0  0  0  0
  7 14  2  0  0  0  0
  7  8  1  0  0  0  0
  8  9  2  0  0  0  0
  9 10  1  0  0  0  0
 10 13  2  0  0  0  0
 10 11  1  0  0  0  0
 11 12  1  0  0  0  0
 12 30  1  0  0  0  0
 13 14  1  0  0  0  0
 13 32  1  0  0  0  0
 14 33  1  0  0  0  0
  8 15  1  0  0  0  0
 15 20  1  0  0  0  0
 15 16  2  0  0  0  0
 16 17  1  0  0  0  0
 17 18  2  0  0  0  0
 18 19  1  0  0  0  0
 19 20  2  0  0  0  0
 19 36  1  0  0  0  0
 20 37  1  0  0  0  0
 18 21  1  0  0  0  0
 21 38  1  0  0  0  0
 22 45  1  0  0  0  0
 21 22  1  0  0  0  0
 23 40  1  0  0  0  0
 21 23  1  0  0  0  0
 23 41  1  0  0  0  0
 24 25  2  0  0  0  0
  6 24  1  0  0  0  0
  3 25  1  0  0  0  0
  9 28  1  0  0  0  0
 12 29  1  0  0  0  0
 12 31  1  0  0  0  0
 16 34  1  0  0  0  0
 17 35  1  0  0  0  0
 22 39  1  0  0  0  0
 23 42  1  0  0  0  0
 24 43  1  0  0  0  0
 25 44  1  0  0  0  0
 45 46  2  0  0  0  0
 47 69  1  0  0  0  0
 45 47  1  0  0  0  0
 47 48  2  0  0  0  0
 49 50  2  0  0  0  0
 48 49  1  0  0  0  0
 50 68  1  0  0  0  0
 50 51  1  0  0  0  0
 51 58  2  0  0  0  0
 51 52  1  0  0  0  0
 52 53  2  0  0  0  0
 53 54  1  0  0  0  0
 54 57  2  0  0  0  0
 54 55  1  0  0  0  0
 55 56  1  0  0  0  0
 56 75  1  0  0  0  0
 57 58  1  0  0  0  0
 57 76  1  0  0  0  0
 58 77  1  0  0  0  0
 59 60  2  0  0  0  0
 52 59  1  0  0  0  0
 60 78  1  0  0  0  0
 61 79  1  0  0  0  0
 60 61  1  0  0  0  0
 61 62  2  0  0  0  0
 62 63  1  0  0  0  0
 63 64  2  0  0  0  0
 59 64  1  0  0  0  0
 65 82  1  0  0  0  0
 65 66  1  0  0  0  0
 62 65  1  0  0  0  0
 66 83  1  0  0  0  0
 67 86  1  0  0  0  0
 65 67  1  0  0  0  0
 68 87  1  0  0  0  0
 68 69  2  0  0  0  0
 69 88  1  0  0  0  0
 48 70  1  0  0  0  0
 49 71  1  0  0  0  0
 53 72  1  0  0  0  0
 56 73  1  0  0  0  0
 56 74  1  0  0  0  0
 63 80  1  0  0  0  0
 64 81  1  0  0  0  0
 67 84  1  0  0  0  0
 67 85  1  0  0  0  0
 66 89  1  0  0  0  0
 89 91  1  0  0  0  0
 89 90  2  0  0  0  0
 91 92  2  0  0  0  0
 92114  1  0  0  0  0
 92 93  1  0  0  0  0
 93115  1  0  0  0  0
 93 94  2  0  0  0  0
 94 95  1  0  0  0  0
 95102  2  0  0  0  0
 95 96  1  0  0  0  0
 96 97  2  0  0  0  0
 97 98  1  0  0  0  0
 98 99  1  0  0  0  0
 98101  2  0  0  0  0
 99100  1  0  0  0  0
100119  1  0  0  0  0
100117  1  0  0  0  0
100118  1  0  0  0  0
101120  1  0  0  0  0
102121  1  0  0  0  0
101102  1  0  0  0  0
 96103  1  0  0  0  0
104122  1  0  0  0  0
103104  2  0  0  0  0
104105  1  0  0  0  0
105106  2  0  0  0  0
106107  1  0  0  0  0
107108  2  0  0  0  0
103108  1  0  0  0  0
108125  1  0  0  0  0
109126  1  0  0  0  0
106109  1  0  0  0  0
110127  1  0  0  0  0
109110  1  0  0  0  0
109111  1  0  0  0  0
111129  1  0  0  0  0
 94112  1  0  0  0  0
 91113  1  0  0  0  0
112113  2  0  0  0  0
 97116  1  0  0  0  0
105123  1  0  0  0  0
107124  1  0  0  0  0
111128  1  0  0  0  0
111130  1  0  0  0  0
112131  1  0  0  0  0
113132  1  0  0  0  0
110133  1  0  0  0  0
133134  2  0  0  0  0
133135  1  0  0  0  0
135136  2  0  0  0  0
136158  1  0  0  0  0
136137  1  0  0  0  0
138156  1  0  0  0  0
137138  2  0  0  0  0
139146  1  0  0  0  0
138139  1  0  0  0  0
139140  2  0  0  0  0
141142  2  0  0  0  0
140141  1  0  0  0  0
142145  1  0  0  0  0
143144  1  0  0  0  0
142143  1  0  0  0  0
144163  1  0  0  0  0
144162  1  0  0  0  0
145164  1  0  0  0  0
145146  2  0  0  0  0
146165  1  0  0  0  0
140147  1  0  0  0  0
147152  1  0  0  0  0
147148  2  0  0  0  0
148149  1  0  0  0  0
149150  2  0  0  0  0
150151  1  0  0  0  0
151152  2  0  0  0  0
151168  1  0  0  0  0
152169  1  0  0  0  0
150153  1  0  0  0  0
153154  1  0  0  0  0
153170  1  0  0  0  0
154171  1  0  0  0  0
153155  1  0  0  0  0
156157  2  0  0  0  0
157176  1  0  0  0  0
135157  1  0  0  0  0
137159  1  0  0  0  0
141160  1  0  0  0  0
144161  1  0  0  0  0
148166  1  0  0  0  0
149167  1  0  0  0  0
155172  1  0  0  0  0
155173  1  0  0  0  0
155174  1  0  0  0  0
156175  1  0  0  0  0
177181  1  0  0  0  0
177180  1  0  0  0  0
177178  1  0  0  0  0
177179  1  0  0  0  0
182189  1  0  0  0  0
182190  1  0  0  0  0
183184  1  0  0  0  0
182183  1  0  0  0  0
184194  1  0  0  0  0
184192  1  0  0  0  0
185197  1  0  0  0  0
183185  1  0  0  0  0
183186  1  0  0  0  0
154187  1  0  0  0  0
186187  1  0  0  0  0
187188  2  0  0  0  0
182191  1  0  0  0  0
184193  1  0  0  0  0
185195  1  0  0  0  0
185196  1  0  0  0  0
M  END
> <atom.dprop.PartialCharge>
0.645470 -0.538050 -0.136800 -0.077350 -0.129850 -0.000040 -0.079890 0.007720 -0.145310 0.129260 -0.324650 0.112450 -0.203020 -0.081920 -0.039380 -0.109910 -0.121970 -0.095310 -0.121970 -0.109910 0.154230 -0.570320 -0.111530 -0.129850 -0.077350 0.152620 0.143600 0.158310 0.046340 0.046340 0.046340 0.141860 0.140770 0.139260 0.135610 0.135610 0.139260 0.080540 0.312210 0.046550 0.046550 0.046550 0.143600 0.152620 0.674250 -0.614170 -0.143330 -0.093760 -0.125220 -0.007980 -0.075530 0.007290 -0.144380 0.127710 -0.325970 0.113400 -0.201270 -0.082650 -0.038260 -0.110030 -0.122400 -0.095930 -0.122400 -0.110030 0.153680 -0.574060 -0.107330 -0.125220 -0.093760 0.147900 0.142200 0.158120 0.045580 0.045580 0.045580 0.141230 0.138890 0.139310 0.133710 0.133710 0.139310 0.085210 0.311120 0.044160 0.044160 0.044160 0.142200 0.147900 0.676570 -0.607860 -0.142140 -0.092420 -0.123730 -0.011160 -0.073990 0.010700 -0.146080 0.125580 -0.325230 0.112720 -0.205470 -0.084540 -0.043530 -0.111320 -0.119900 -0.090010 -0.119900 -0.111320 0.153380 -0.573890 -0.111730 -0.123730 -0.092420 0.147130 0.141840 0.157640 0.045280 0.045280 0.045280 0.139460 0.139320 0.134470 0.138080 0.138080 0.134470 0.084890 0.316010 0.044500 0.044500 0.044500 0.141840 0.147130 0.676220 -0.610730 -0.141020 -0.085970 -0.122770 -0.014380 -0.067640 0.009740 -0.148210 0.122680 -0.327060 0.114140 -0.205230 -0.085980 -0.040940 -0.113400 -0.108070 -0.105250 -0.108070 -0.113400 0.158310 -0.543230 -0.101370 -0.122770 -0.085970 0.149000 0.140140 0.155380 0.043720 0.043720 0.043720 0.137320 0.140170 0.132800 0.136580 0.136580 0.132800 0.072590 0.318630 0.046450 0.046450 0.046450 0.140140 0.149000 0.124590 -0.430400 0.050830 0.050830 0.050830 -0.114630 0.190150 -0.114630 -0.114630 -0.448920 0.744640 -0.585390 0.051690 0.051690 0.051690 0.051690 0.051690 0.051690 0.051690 0.051690 0.051690

$$$$
