pop_tetramer.pdb
  -OEChem-08282513313D

197208  0     1  0  0  0  0  0999 V2000
   -2.4150   -4.9340    0.7060 C   0  0  0  0  0  0  0  0  0  0  0  0
   -2.0510   -5.6410   -0.2210 O   0  0  0  0  0  0  0  0  0  0  0  0
   -2.4190   -3.4490    0.6490 C   0  0  0  0  0  0  0  0  0  0  0  0
   -2.8370   -2.6470    1.7170 C   0  0  0  0  0  0  0  0  0  0  0  0
   -2.6980   -1.2550    1.6460 C   0  0  0  0  0  0  0  0  0  0  0  0
   -2.1480   -0.6390    0.5080 C   0  0  0  0  0  0  0  0  0  0  0  0
   -1.9510    0.8250    0.4470 C   0  0  0  0  0  0  0  0  0  0  0  0
   -0.6900    1.4260    0.1810 C   0  0  0  0  0  0  0  0  0  0  0  0
   -0.6290    2.8330    0.0730 C   0  0  0  0  0  0  0  0  0  0  0  0
   -1.7580    3.6440    0.2340 C   0  0  0  0  0  0  0  0  0  0  0  0
   -1.5290    4.9850    0.0870 O   0  0  0  0  0  0  0  0  0  0  0  0
   -2.6490    5.8520    0.2230 C   0  0  0  0  0  0  0  0  0  0  0  0
   -2.9810    3.0520    0.5210 C   0  0  0  0  0  0  0  0  0  0  0  0
   -3.0730    1.6610    0.6250 C   0  0  0  0  0  0  0  0  0  0  0  0
    0.5630    0.6440    0.0280 C   0  0  0  0  0  0  0  0  0  0  0  0
    1.3410    0.7310   -1.1380 C   0  0  0  0  0  0  0  0  0  0  0  0
    2.5220   -0.0110   -1.2860 C   0  0  0  0  0  0  0  0  0  0  0  0
    2.9660   -0.8650   -0.2670 C   0  0  0  0  0  0  0  0  0  0  0  0
    2.1850   -0.9680    0.8930 C   0  0  0  0  0  0  0  0  0  0  0  0
    1.0120   -0.2170    1.0420 C   0  0  0  0  0  0  0  0  0  0  0  0
    4.3060   -1.5830   -0.3390 C   0  0  1  0  0  0  0  0  0  0  0  0
    4.3580   -2.5660   -1.4110 N   0  0  0  0  0  0  0  0  0  0  0  0
    5.4480   -0.5650   -0.3700 C   0  0  0  0  0  0  0  0  0  0  0  0
   -1.7770   -1.4580   -0.5710 C   0  0  0  0  0  0  0  0  0  0  0  0
   -1.9010   -2.8460   -0.5000 C   0  0  0  0  0  0  0  0  0  0  0  0
   -3.2430   -3.0890    2.6240 H   0  0  0  0  0  0  0  0  0  0  0  0
   -2.9970   -0.6530    2.5020 H   0  0  0  0  0  0  0  0  0  0  0  0
    0.3250    3.3170   -0.1310 H   0  0  0  0  0  0  0  0  0  0  0  0
   -2.3010    6.8760    0.0530 H   0  0  0  0  0  0  0  0  0  0  0  0
   -3.0630    5.8050    1.2360 H   0  0  0  0  0  0  0  0  0  0  0  0
   -3.4150    5.6350   -0.5280 H   0  0  0  0  0  0  0  0  0  0  0  0
   -3.8850    3.6360    0.6610 H   0  0  0  0  0  0  0  0  0  0  0  0
   -4.0490    1.2220    0.8290 H   0  0  0  0  0  0  0  0  0  0  0  0
    1.0310    1.3890   -1.9480 H   0  0  0  0  0  0  0  0  0  0  0  0
    3.1050    0.1080   -2.1960 H   0  0  0  0  0  0  0  0  0  0  0  0
    2.4940   -1.6180    1.7100 H   0  0  0  0  0  0  0  0  0  0  0  0
    0.4480   -0.3090    1.9680 H   0  0  0  0  0  0  0  0  0  0  0  0
    4.4260   -2.1710    0.5830 H   0  0  0  0  0  0  0  0  0  0  0  0
    3.9360   -2.3430   -2.3020 H   0  0  0  0  0  0  0  0  0  0  0  0
    6.4290   -1.0430   -0.3090 H   0  0  0  0  0  0  0  0  0  0  0  0
    5.3750    0.1120    0.4880 H   0  0  0  0  0  0  0  0  0  0  0  0
    5.4340    0.0330   -1.2850 H   0  0  0  0  0  0  0  0  0  0  0  0
   -1.3500   -1.0170   -1.4700 H   0  0  0  0  0  0  0  0  0  0  0  0
   -1.5600   -3.4530   -1.3370 H   0  0  0  0  0  0  0  0  0  0  0  0
    5.3750   -3.5020   -1.4090 C   0  0  0  0  0  0  0  0  0  0  0  0
    6.4470   -3.3150   -0.8410 O   0  0  0  0  0  0  0  0  0  0  0  0
    5.1100   -4.8370   -2.0120 C   0  0  0  0  0  0  0  0  0  0  0  0
    3.8540   -5.2480   -2.4680 C   0  0  0  0  0  0  0  0  0  0  0  0
    3.6610   -6.5780   -2.8790 C   0  0  0  0  0  0  0  0  0  0  0  0
    4.7080   -7.5170   -2.8330 C   0  0  0  0  0  0  0  0  0  0  0  0
    4.5280   -8.9090   -3.3020 C   0  0  0  0  0  0  0  0  0  0  0  0
    5.3580   -9.4910   -4.3010 C   0  0  0  0  0  0  0  0  0  0  0  0
    5.1520  -10.8480   -4.6330 C   0  0  0  0  0  0  0  0  0  0  0  0
    4.1600  -11.6240   -4.0240 C   0  0  0  0  0  0  0  0  0  0  0  0
    4.1000  -12.9210   -4.4540 O   0  0  0  0  0  0  0  0  0  0  0  0
    3.1070  -13.7540   -3.8660 C   0  0  0  0  0  0  0  0  0  0  0  0
    3.3400  -11.0430   -3.0640 C   0  0  0  0  0  0  0  0  0  0  0  0
    3.5260   -9.7020   -2.7080 C   0  0  0  0  0  0  0  0  0  0  0  0
    6.4160   -8.7300   -5.0120 C   0  0  0  0  0  0  0  0  0  0  0  0
    7.7540   -9.1560   -5.0090 C   0  0  0  0  0  0  0  0  0  0  0  0
    8.7540   -8.4220   -5.6660 C   0  0  0  0  0  0  0  0  0  0  0  0
    8.4430   -7.2370   -6.3500 C   0  0  0  0  0  0  0  0  0  0  0  0
    7.1120   -6.7980   -6.3390 C   0  0  0  0  0  0  0  0  0  0  0  0
    6.1160   -7.5410   -5.6960 C   0  0  0  0  0  0  0  0  0  0  0  0
    9.4750   -6.4890   -7.1810 C   0  0  1  0  0  0  0  0  0  0  0  0
   10.5450   -5.9270   -6.3700 N   0  0  0  0  0  0  0  0  0  0  0  0
    9.9580   -7.3720   -8.3340 C   0  0  0  0  0  0  0  0  0  0  0  0
    5.9510   -7.0920   -2.3430 C   0  0  0  0  0  0  0  0  0  0  0  0
    6.1540   -5.7690   -1.9570 C   0  0  0  0  0  0  0  0  0  0  0  0
    3.0080   -4.5680   -2.4800 H   0  0  0  0  0  0  0  0  0  0  0  0
    2.6780   -6.8820   -3.2360 H   0  0  0  0  0  0  0  0  0  0  0  0
    5.7750  -11.3150   -5.3950 H   0  0  0  0  0  0  0  0  0  0  0  0
    3.1980  -14.7490   -4.3130 H   0  0  0  0  0  0  0  0  0  0  0  0
    2.1000  -13.3830   -4.0840 H   0  0  0  0  0  0  0  0  0  0  0  0
    3.2650  -13.8600   -2.7880 H   0  0  0  0  0  0  0  0  0  0  0  0
    2.5540  -11.6000   -2.5650 H   0  0  0  0  0  0  0  0  0  0  0  0
    2.8860   -9.2810   -1.9340 H   0  0  0  0  0  0  0  0  0  0  0  0
    8.0320  -10.0730   -4.4910 H   0  0  0  0  0  0  0  0  0  0  0  0
    9.7720   -8.8030   -5.6630 H   0  0  0  0  0  0  0  0  0  0  0  0
    6.8270   -5.8810   -6.8530 H   0  0  0  0  0  0  0  0  0  0  0  0
    5.0910   -7.1760   -5.7280 H   0  0  0  0  0  0  0  0  0  0  0  0
    8.9800   -5.6170   -7.6320 H   0  0  0  0  0  0  0  0  0  0  0  0
   10.9270   -6.4840   -5.6170 H   0  0  0  0  0  0  0  0  0  0  0  0
   10.6100   -6.8320   -9.0240 H   0  0  0  0  0  0  0  0  0  0  0  0
    9.1050   -7.7280   -8.9220 H   0  0  0  0  0  0  0  0  0  0  0  0
   10.5150   -8.2420   -7.9740 H   0  0  0  0  0  0  0  0  0  0  0  0
    6.7830   -7.7900   -2.2670 H   0  0  0  0  0  0  0  0  0  0  0  0
    7.1330   -5.4790   -1.5790 H   0  0  0  0  0  0  0  0  0  0  0  0
   11.3820   -4.9810   -6.9320 C   0  0  0  0  0  0  0  0  0  0  0  0
   11.5610   -4.8940   -8.1430 O   0  0  0  0  0  0  0  0  0  0  0  0
   11.9930   -3.9540   -6.0430 C   0  0  0  0  0  0  0  0  0  0  0  0
   11.6760   -3.8040   -4.6910 C   0  0  0  0  0  0  0  0  0  0  0  0
   12.1880   -2.7110   -3.9710 C   0  0  0  0  0  0  0  0  0  0  0  0
   13.0120   -1.7490   -4.5870 C   0  0  0  0  0  0  0  0  0  0  0  0
   13.5860   -0.6150   -3.8290 C   0  0  0  0  0  0  0  0  0  0  0  0
   14.9850   -0.3600   -3.7760 C   0  0  0  0  0  0  0  0  0  0  0  0
   15.4290    0.7800   -3.0690 C   0  0  0  0  0  0  0  0  0  0  0  0
   14.5440    1.6480   -2.4190 C   0  0  0  0  0  0  0  0  0  0  0  0
   15.1380    2.7050   -1.7850 O   0  0  0  0  0  0  0  0  0  0  0  0
   14.2830    3.6160   -1.1030 C   0  0  0  0  0  0  0  0  0  0  0  0
   13.1800    1.3860   -2.4650 C   0  0  0  0  0  0  0  0  0  0  0  0
   12.7100    0.2690   -3.1640 C   0  0  0  0  0  0  0  0  0  0  0  0
   15.9910   -1.2450   -4.4190 C   0  0  0  0  0  0  0  0  0  0  0  0
   16.9020   -0.7520   -5.3680 C   0  0  0  0  0  0  0  0  0  0  0  0
   17.8330   -1.5970   -5.9950 C   0  0  0  0  0  0  0  0  0  0  0  0
   17.8820   -2.9650   -5.6900 C   0  0  0  0  0  0  0  0  0  0  0  0
   16.9660   -3.4640   -4.7530 C   0  0  0  0  0  0  0  0  0  0  0  0
   16.0500   -2.6150   -4.1190 C   0  0  0  0  0  0  0  0  0  0  0  0
   18.9580   -3.8830   -6.2550 C   0  0  1  0  0  0  0  0  0  0  0  0
   18.8550   -4.0370   -7.7020 N   0  0  0  0  0  0  0  0  0  0  0  0
   20.3350   -3.4300   -5.7630 C   0  0  0  0  0  0  0  0  0  0  0  0
   13.2920   -1.9020   -5.9510 C   0  0  0  0  0  0  0  0  0  0  0  0
   12.8070   -2.9960   -6.6630 C   0  0  0  0  0  0  0  0  0  0  0  0
   11.0100   -4.4990   -4.1870 H   0  0  0  0  0  0  0  0  0  0  0  0
   11.9360   -2.6100   -2.9160 H   0  0  0  0  0  0  0  0  0  0  0  0
   16.4950    0.9950   -3.0120 H   0  0  0  0  0  0  0  0  0  0  0  0
   14.9090    4.4010   -0.6680 H   0  0  0  0  0  0  0  0  0  0  0  0
   13.7530    3.1200   -0.2830 H   0  0  0  0  0  0  0  0  0  0  0  0
   13.5820    4.0960   -1.7940 H   0  0  0  0  0  0  0  0  0  0  0  0
   12.4520    2.0290   -1.9810 H   0  0  0  0  0  0  0  0  0  0  0  0
   11.6350    0.0990   -3.2070 H   0  0  0  0  0  0  0  0  0  0  0  0
   16.8950    0.3040   -5.6310 H   0  0  0  0  0  0  0  0  0  0  0  0
   18.5370   -1.1660   -6.7030 H   0  0  0  0  0  0  0  0  0  0  0  0
   16.9690   -4.5190   -4.4860 H   0  0  0  0  0  0  0  0  0  0  0  0
   15.3690   -3.0410   -3.3840 H   0  0  0  0  0  0  0  0  0  0  0  0
   18.7910   -4.8930   -5.8570 H   0  0  0  0  0  0  0  0  0  0  0  0
   18.6960   -3.2010   -8.2480 H   0  0  0  0  0  0  0  0  0  0  0  0
   21.1230   -4.1430   -6.0200 H   0  0  0  0  0  0  0  0  0  0  0  0
   20.3400   -3.3460   -4.6700 H   0  0  0  0  0  0  0  0  0  0  0  0
   20.6200   -2.4620   -6.1860 H   0  0  0  0  0  0  0  0  0  0  0  0
   13.9040   -1.1700   -6.4750 H   0  0  0  0  0  0  0  0  0  0  0  0
   13.0460   -3.0780   -7.7220 H   0  0  0  0  0  0  0  0  0  0  0  0
   19.6070   -5.0150   -8.3250 C   0  0  0  0  0  0  0  0  0  0  0  0
   20.6660   -5.4340   -7.8690 O   0  0  0  0  0  0  0  0  0  0  0  0
   19.0390   -5.6710   -9.5350 C   0  0  0  0  0  0  0  0  0  0  0  0
   17.7850   -5.3670  -10.0720 C   0  0  0  0  0  0  0  0  0  0  0  0
   17.2890   -6.1160  -11.1540 C   0  0  0  0  0  0  0  0  0  0  0  0
   18.0260   -7.1850  -11.7100 C   0  0  0  0  0  0  0  0  0  0  0  0
   17.5340   -7.9400  -12.8750 C   0  0  0  0  0  0  0  0  0  0  0  0
   18.2900   -8.0650  -14.0730 C   0  0  0  0  0  0  0  0  0  0  0  0
   17.7560   -8.8620  -15.1150 C   0  0  0  0  0  0  0  0  0  0  0  0
   16.5370   -9.5190  -15.0030 C   0  0  0  0  0  0  0  0  0  0  0  0
   16.1590  -10.2570  -16.0890 O   0  0  0  0  0  0  0  0  0  0  0  0
   14.9110  -10.9360  -16.0240 C   0  0  0  0  0  0  0  0  0  0  0  0
   15.7920   -9.3800  -13.8240 C   0  0  0  0  0  0  0  0  0  0  0  0
   16.2930   -8.6060  -12.7820 C   0  0  0  0  0  0  0  0  0  0  0  0
   19.5970   -7.3880  -14.2830 C   0  0  0  0  0  0  0  0  0  0  0  0
   20.7540   -8.1140  -14.6130 C   0  0  0  0  0  0  0  0  0  0  0  0
   21.9980   -7.4760  -14.7860 C   0  0  0  0  0  0  0  0  0  0  0  0
   22.1230   -6.0920  -14.6260 C   0  0  0  0  0  0  0  0  0  0  0  0
   20.9720   -5.3640  -14.2890 C   0  0  0  0  0  0  0  0  0  0  0  0
   19.7320   -6.0000  -14.1370 C   0  0  0  0  0  0  0  0  0  0  0  0
   23.4170   -5.3400  -14.8970 C   0  0  1  0  0  0  0  0  0  0  0  0
   24.5580   -5.8120  -14.1290 N   0  0  0  0  0  0  0  0  0  0  0  0
   23.7720   -5.4110  -16.3880 C   0  0  0  0  0  0  0  0  0  0  0  0
   19.2610   -7.4960  -11.1250 C   0  0  0  0  0  0  0  0  0  0  0  0
   19.7690   -6.7420  -10.0690 C   0  0  0  0  0  0  0  0  0  0  0  0
   17.1720   -4.5730   -9.6560 H   0  0  0  0  0  0  0  0  0  0  0  0
   16.3160   -5.8580  -11.5690 H   0  0  0  0  0  0  0  0  0  0  0  0
   18.3100   -8.9720  -16.0460 H   0  0  0  0  0  0  0  0  0  0  0  0
   14.7680  -11.4660  -16.9720 H   0  0  0  0  0  0  0  0  0  0  0  0
   14.0810  -10.2310  -15.9110 H   0  0  0  0  0  0  0  0  0  0  0  0
   14.9070  -11.6840  -15.2240 H   0  0  0  0  0  0  0  0  0  0  0  0
   14.8440   -9.8610  -13.6810 H   0  0  0  0  0  0  0  0  0  0  0  0
   15.7110   -8.5260  -11.8590 H   0  0  0  0  0  0  0  0  0  0  0  0
   20.6970   -9.1930  -14.7430 H   0  0  0  0  0  0  0  0  0  0  0  0
   22.8570   -8.0810  -15.0620 H   0  0  0  0  0  0  0  0  0  0  0  0
   21.0190   -4.2840  -14.1550 H   0  0  0  0  0  0  0  0  0  0  0  0
   18.8630   -5.3910  -13.8940 H   0  0  0  0  0  0  0  0  0  0  0  0
   23.2630   -4.2820  -14.6440 H   0  0  0  0  0  0  0  0  0  0  0  0
   24.8470   -6.7650  -14.2900 H   0  0  0  0  0  0  0  0  0  0  0  0
   24.6730   -4.8250  -16.6040 H   0  0  0  0  0  0  0  0  0  0  0  0
   22.9600   -5.0290  -17.0140 H   0  0  0  0  0  0  0  0  0  0  0  0
   23.9850   -6.4430  -16.6940 H   0  0  0  0  0  0  0  0  0  0  0  0
   19.8540   -8.3280  -11.5030 H   0  0  0  0  0  0  0  0  0  0  0  0
   20.7360   -7.0140   -9.6500 H   0  0  0  0  0  0  0  0  0  0  0  0
   -2.3680   -6.7100    2.2170 C   0  0  0  0  0  0  0  0  0  0  0  0
   -2.7440   -5.3590    1.9510 O   0  0  0  0  0  0  0  0  0  0  0  0
   -2.6100   -7.3850    1.3900 H   0  0  0  0  0  0  0  0  0  0  0  0
   -2.9020   -7.0470    3.1090 H   0  0  0  0  0  0  0  0  0  0  0  0
   -1.2930   -6.7340    2.4250 H   0  0  0  0  0  0  0  0  0  0  0  0
   29.0290   -5.8640  -14.9770 C   0  0  0  0  0  0  0  0  0  0  0  0
   28.0030   -4.8450  -14.4540 C   0  0  0  0  0  0  0  0  0  0  0  0
   28.4830   -4.3020  -13.1070 C   0  0  0  0  0  0  0  0  0  0  0  0
   27.8840   -3.7300  -15.5070 C   0  0  0  0  0  0  0  0  0  0  0  0
   26.7690   -5.5980  -14.2820 O   0  0  0  0  0  0  0  0  0  0  0  0
   25.6140   -4.9440  -14.0080 C   0  0  0  0  0  0  0  0  0  0  0  0
   25.5040   -3.7430  -13.8110 O   0  0  0  0  0  0  0  0  0  0  0  0
   30.0130   -5.4070  -15.1260 H   0  0  0  0  0  0  0  0  0  0  0  0
   29.1370   -6.7060  -14.2850 H   0  0  0  0  0  0  0  0  0  0  0  0
   28.7010   -6.2880  -15.9350 H   0  0  0  0  0  0  0  0  0  0  0  0
   28.5010   -5.0980  -12.3540 H   0  0  0  0  0  0  0  0  0  0  0  0
   27.8140   -3.5240  -12.7250 H   0  0  0  0  0  0  0  0  0  0  0  0
   29.4860   -3.8710  -13.1840 H   0  0  0  0  0  0  0  0  0  0  0  0
   27.4610   -4.1150  -16.4410 H   0  0  0  0  0  0  0  0  0  0  0  0
   27.2360   -2.9120  -15.1800 H   0  0  0  0  0  0  0  0  0  0  0  0
   28.8630   -3.2870  -15.7260 H   0  0  0  0  0  0  0  0  0  0  0  0
  1178  1  0  0  0  0
  1  2  2  0  0  0  0
  1  3  1  0  0  0  0
  3  4  2  0  0  0  0
  4 26  1  0  0  0  0
  4  5  1  0  0  0  0
  5 27  1  0  0  0  0
  5  6  2  0  0  0  0
  6  7  1  0  0  0  0
  7 14  2  0  0  0  0
  7  8  1  0  0  0  0
  8  9  2  0  0  0  0
  9 10  1  0  0  0  0
 10 13  2  0  0  0  0
 11 12  1  0  0  0  0
 10 11  1  0  0  0  0
 12 30  1  0  0  0  0
 13 14  1  0  0  0  0
 13 32  1  0  0  0  0
 14 33  1  0  0  0  0
  8 15  1  0  0  0  0
 15 20  1  0  0  0  0
 15 16  2  0  0  0  0
 16 17  1  0  0  0  0
 17 18  2  0  0  0  0
 18 19  1  0  0  0  0
 19 20  2  0  0  0  0
 19 36  1  0  0  0  0
 20 37  1  0  0  0  0
 18 21  1  0  0  0  0
 21 38  1  0  0  0  0
 22 45  1  0  0  0  0
 21 22  1  0  0  0  0
 21 23  1  0  0  0  0
 23 40  1  0  0  0  0
 23 41  1  0  0  0  0
 24 25  2  0  0  0  0
  6 24  1  0  0  0  0
  3 25  1  0  0  0  0
  9 28  1  0  0  0  0
 12 29  1  0  0  0  0
 12 31  1  0  0  0  0
 16 34  1  0  0  0  0
 17 35  1  0  0  0  0
 22 39  1  0  0  0  0
 23 42  1  0  0  0  0
 24 43  1  0  0  0  0
 25 44  1  0  0  0  0
 45 46  2  0  0  0  0
 47 69  1  0  0  0  0
 45 47  1  0  0  0  0
 47 48  2  0  0  0  0
 49 50  2  0  0  0  0
 48 49  1  0  0  0  0
 50 68  1  0  0  0  0
 50 51  1  0  0  0  0
 51 58  2  0  0  0  0
 51 52  1  0  0  0  0
 52 53  2  0  0  0  0
 53 54  1  0  0  0  0
 54 57  2  0  0  0  0
 54 55  1  0  0  0  0
 55 56  1  0  0  0  0
 56 75  1  0  0  0  0
 57 58  1  0  0  0  0
 57 76  1  0  0  0  0
 58 77  1  0  0  0  0
 59 60  2  0  0  0  0
 52 59  1  0  0  0  0
 60 78  1  0  0  0  0
 61 79  1  0  0  0  0
 60 61  1  0  0  0  0
 62 63  1  0  0  0  0
 61 62  2  0  0  0  0
 63 64  2  0  0  0  0
 59 64  1  0  0  0  0
 65 82  1  0  0  0  0
 65 66  1  0  0  0  0
 62 65  1  0  0  0  0
 66 83  1  0  0  0  0
 67 86  1  0  0  0  0
 65 67  1  0  0  0  0
 68 87  1  0  0  0  0
 68 69  2  0  0  0  0
 69 88  1  0  0  0  0
 48 70  1  0  0  0  0
 49 71  1  0  0  0  0
 53 72  1  0  0  0  0
 56 73  1  0  0  0  0
 56 74  1  0  0  0  0
 63 80  1  0  0  0  0
 64 81  1  0  0  0  0
 67 84  1  0  0  0  0
 67 85  1  0  0  0  0
 66 89  1  0  0  0  0
 89 91  1  0  0  0  0
 89 90  2  0  0  0  0
 91 92  2  0  0  0  0
 92114  1  0  0  0  0
 92 93  1  0  0  0  0
 93115  1  0  0  0  0
 93 94  2  0  0  0  0
 94 95  1  0  0  0  0
 95 96  1  0  0  0  0
 95102  2  0  0  0  0
 96 97  2  0  0  0  0
 97116  1  0  0  0  0
 97 98  1  0  0  0  0
 98 99  1  0  0  0  0
 99100  1  0  0  0  0
100117  1  0  0  0  0
100118  1  0  0  0  0
 98101  2  0  0  0  0
101120  1  0  0  0  0
101102  1  0  0  0  0
103108  1  0  0  0  0
 96103  1  0  0  0  0
103104  2  0  0  0  0
105106  2  0  0  0  0
104105  1  0  0  0  0
106107  1  0  0  0  0
107124  1  0  0  0  0
107108  2  0  0  0  0
108125  1  0  0  0  0
109126  1  0  0  0  0
109111  1  0  0  0  0
106109  1  0  0  0  0
109110  1  0  0  0  0
111129  1  0  0  0  0
 94112  1  0  0  0  0
 91113  1  0  0  0  0
112113  2  0  0  0  0
100119  1  0  0  0  0
102121  1  0  0  0  0
104122  1  0  0  0  0
105123  1  0  0  0  0
110127  1  0  0  0  0
111128  1  0  0  0  0
111130  1  0  0  0  0
112131  1  0  0  0  0
113132  1  0  0  0  0
133134  2  0  0  0  0
110133  1  0  0  0  0
133135  1  0  0  0  0
136158  1  0  0  0  0
135136  2  0  0  0  0
136137  1  0  0  0  0
137138  2  0  0  0  0
138156  1  0  0  0  0
139146  1  0  0  0  0
138139  1  0  0  0  0
139140  2  0  0  0  0
141142  2  0  0  0  0
140141  1  0  0  0  0
142145  1  0  0  0  0
143144  1  0  0  0  0
142143  1  0  0  0  0
144162  1  0  0  0  0
144163  1  0  0  0  0
145164  1  0  0  0  0
145146  2  0  0  0  0
146165  1  0  0  0  0
147152  1  0  0  0  0
140147  1  0  0  0  0
147148  2  0  0  0  0
149150  2  0  0  0  0
148149  1  0  0  0  0
150151  1  0  0  0  0
151168  1  0  0  0  0
151152  2  0  0  0  0
152169  1  0  0  0  0
153170  1  0  0  0  0
150153  1  0  0  0  0
153154  1  0  0  0  0
154187  1  0  0  0  0
153155  1  0  0  0  0
156157  2  0  0  0  0
157176  1  0  0  0  0
135157  1  0  0  0  0
137159  1  0  0  0  0
141160  1  0  0  0  0
144161  1  0  0  0  0
148166  1  0  0  0  0
149167  1  0  0  0  0
154171  1  0  0  0  0
155172  1  0  0  0  0
155173  1  0  0  0  0
155174  1  0  0  0  0
156175  1  0  0  0  0
177181  1  0  0  0  0
177180  1  0  0  0  0
177178  1  0  0  0  0
177179  1  0  0  0  0
182183  1  0  0  0  0
182190  1  0  0  0  0
183186  1  0  0  0  0
183184  1  0  0  0  0
184193  1  0  0  0  0
184192  1  0  0  0  0
185196  1  0  0  0  0
183185  1  0  0  0  0
186187  1  0  0  0  0
187188  2  0  0  0  0
182189  1  0  0  0  0
182191  1  0  0  0  0
184194  1  0  0  0  0
185195  1  0  0  0  0
185197  1  0  0  0  0
M  END
> <atom.dprop.PartialCharge>
0.647610 -0.538130 -0.135150 -0.074120 -0.128590 -0.002360 -0.071890 0.009990 -0.197500 0.127180 -0.326270 0.112530 -0.154880 -0.085350 -0.041760 -0.114100 -0.114040 -0.109180 -0.114040 -0.114100 0.149470 -0.567520 -0.102220 -0.128590 -0.074120 0.153510 0.142390 0.144590 0.045390 0.045390 0.045390 0.152510 0.143420 0.137880 0.136570 0.136570 0.137880 0.078130 0.305260 0.044100 0.044100 0.044100 0.142390 0.153510 0.674410 -0.590580 -0.142470 -0.090000 -0.125810 -0.010700 -0.074740 0.002990 -0.145650 0.127160 -0.324250 0.112130 -0.201320 -0.081470 -0.035370 -0.111540 -0.120140 -0.098850 -0.120140 -0.111540 0.156160 -0.568760 -0.120800 -0.125810 -0.090000 0.147770 0.138920 0.157320 0.046070 0.046070 0.046070 0.141130 0.142130 0.136980 0.136880 0.136880 0.136980 0.082510 0.311670 0.048650 0.048650 0.048650 0.138920 0.147770 0.676870 -0.612780 -0.141420 -0.094280 -0.127190 -0.008020 -0.078880 0.009650 -0.146430 0.128470 -0.325560 0.113850 -0.204550 -0.084800 -0.042020 -0.111580 -0.121520 -0.090600 -0.121520 -0.111580 0.150180 -0.575250 -0.109830 -0.127190 -0.094280 0.145530 0.142060 0.158100 0.045620 0.045620 0.045620 0.140690 0.143850 0.136110 0.136200 0.136200 0.136110 0.087910 0.312730 0.044390 0.044390 0.044390 0.142060 0.145530 0.678800 -0.605300 -0.142120 -0.091640 -0.124320 -0.012120 -0.070660 0.009150 -0.146930 0.125820 -0.325550 0.113310 -0.202060 -0.083300 -0.041090 -0.106640 -0.123480 -0.105700 -0.123480 -0.106640 0.141120 -0.526970 -0.095400 -0.124320 -0.091640 0.147800 0.142770 0.155440 0.044920 0.044920 0.044920 0.139380 0.139250 0.139110 0.132290 0.132290 0.139110 0.092750 0.312250 0.046310 0.046310 0.046310 0.142770 0.147800 0.124440 -0.432090 0.049860 0.049860 0.049860 -0.114920 0.187610 -0.114920 -0.114920 -0.456250 0.740510 -0.578640 0.051370 0.051370 0.051370 0.051370 0.051370 0.051370 0.051370 0.051370 0.051370

$$$$
