pop_tetramer.pdb
 OpenBabel09052520263D

197208  0  0  1  0  0  0  0  0999 V2000
   -2.4630   -4.9200    0.7100 C   0  0  0  0  0  0  0  0  0  0  0  0
   -2.0570   -5.6280   -0.2000 O   0  0  0  0  0  0  0  0  0  0  0  0
   -2.4330   -3.4440    0.6520 C   0  0  0  0  0  0  0  0  0  0  0  0
   -2.8490   -2.6310    1.7090 C   0  0  0  0  0  0  0  0  0  0  0  0
   -2.6980   -1.2480    1.6370 C   0  0  0  0  0  0  0  0  0  0  0  0
   -2.1410   -0.6380    0.5030 C   0  0  0  0  0  0  0  0  0  0  0  0
   -1.9480    0.8290    0.4390 C   0  0  0  0  0  0  0  0  0  0  0  0
   -0.6940    1.4460    0.1790 C   0  0  0  0  0  0  0  0  0  0  0  0
   -0.6570    2.8550    0.0550 C   0  0  0  0  0  0  0  0  0  0  0  0
   -1.7970    3.6540    0.2060 C   0  0  0  0  0  0  0  0  0  0  0  0
   -1.5800    4.9960    0.0540 O   0  0  0  0  0  0  0  0  0  0  0  0
   -2.6890    5.8730    0.2120 C   0  0  0  0  0  0  0  0  0  0  0  0
   -3.0120    3.0480    0.4910 C   0  0  0  0  0  0  0  0  0  0  0  0
   -3.0840    1.6540    0.6020 C   0  0  0  0  0  0  0  0  0  0  0  0
    0.5680    0.6780    0.0440 C   0  0  0  0  0  0  0  0  0  0  0  0
    1.3610    0.7720   -1.1100 C   0  0  0  0  0  0  0  0  0  0  0  0
    2.5340    0.0140   -1.2600 C   0  0  0  0  0  0  0  0  0  0  0  0
    2.9530   -0.8740   -0.2580 C   0  0  0  0  0  0  0  0  0  0  0  0
    2.1640   -0.9720    0.8990 C   0  0  0  0  0  0  0  0  0  0  0  0
    1.0050   -0.2000    1.0530 C   0  0  0  0  0  0  0  0  0  0  0  0
    4.2710   -1.6350   -0.3480 C   0  0  1  0  0  0  0  0  0  0  0  0
    4.3030   -2.5810   -1.4610 N   0  0  0  0  0  0  0  0  0  0  0  0
    5.4450   -0.6500   -0.3500 C   0  0  0  0  0  0  0  0  0  0  0  0
   -1.7410   -1.4640   -0.5610 C   0  0  0  0  0  0  0  0  0  0  0  0
   -1.8830   -2.8490   -0.4880 C   0  0  0  0  0  0  0  0  0  0  0  0
   -3.2680   -3.0730    2.6170 H   0  0  0  0  0  0  0  0  0  0  0  0
   -2.9940   -0.6410    2.4920 H   0  0  0  0  0  0  0  0  0  0  0  0
    0.2900    3.3500   -0.1550 H   0  0  0  0  0  0  0  0  0  0  0  0
   -2.3230    6.8960    0.0760 H   0  0  0  0  0  0  0  0  0  0  0  0
   -3.1130    5.8060    1.2190 H   0  0  0  0  0  0  0  0  0  0  0  0
   -3.4540    5.6920   -0.5510 H   0  0  0  0  0  0  0  0  0  0  0  0
   -3.9250    3.6190    0.6240 H   0  0  0  0  0  0  0  0  0  0  0  0
   -4.0530    1.1990    0.8020 H   0  0  0  0  0  0  0  0  0  0  0  0
    1.0640    1.4420   -1.9150 H   0  0  0  0  0  0  0  0  0  0  0  0
    3.1240    0.1450   -2.1630 H   0  0  0  0  0  0  0  0  0  0  0  0
    2.4520   -1.6420    1.7070 H   0  0  0  0  0  0  0  0  0  0  0  0
    0.4310   -0.2970    1.9730 H   0  0  0  0  0  0  0  0  0  0  0  0
    4.3670   -2.2630    0.5490 H   0  0  0  0  0  0  0  0  0  0  0  0
    4.1120   -2.1690   -2.3660 H   0  0  0  0  0  0  0  0  0  0  0  0
    6.4150   -1.1500   -0.3190 H   0  0  0  0  0  0  0  0  0  0  0  0
    5.4060   -0.0040    0.5330 H   0  0  0  0  0  0  0  0  0  0  0  0
    5.4400   -0.0230   -1.2470 H   0  0  0  0  0  0  0  0  0  0  0  0
   -1.2880   -1.0340   -1.4540 H   0  0  0  0  0  0  0  0  0  0  0  0
   -1.5350   -3.4640   -1.3150 H   0  0  0  0  0  0  0  0  0  0  0  0
    5.3520   -3.4870   -1.5020 C   0  0  0  0  0  0  0  0  0  0  0  0
    6.4650   -3.2510   -1.0440 O   0  0  0  0  0  0  0  0  0  0  0  0
    5.0840   -4.8490   -2.0290 C   0  0  0  0  0  0  0  0  0  0  0  0
    3.8320   -5.2690   -2.4780 C   0  0  0  0  0  0  0  0  0  0  0  0
    3.6530   -6.5990   -2.8820 C   0  0  0  0  0  0  0  0  0  0  0  0
    4.7100   -7.5280   -2.8340 C   0  0  0  0  0  0  0  0  0  0  0  0
    4.5330   -8.9210   -3.2970 C   0  0  0  0  0  0  0  0  0  0  0  0
    5.3560   -9.5070   -4.2970 C   0  0  0  0  0  0  0  0  0  0  0  0
    5.1430  -10.8660   -4.6180 C   0  0  0  0  0  0  0  0  0  0  0  0
    4.1450  -11.6340   -4.0060 C   0  0  0  0  0  0  0  0  0  0  0  0
    4.0780  -12.9280   -4.4430 O   0  0  0  0  0  0  0  0  0  0  0  0
    3.0740  -13.7650   -3.8810 C   0  0  0  0  0  0  0  0  0  0  0  0
    3.3320  -11.0480   -3.0450 C   0  0  0  0  0  0  0  0  0  0  0  0
    3.5280   -9.7080   -2.6940 C   0  0  0  0  0  0  0  0  0  0  0  0
    6.4090   -8.7480   -5.0230 C   0  0  0  0  0  0  0  0  0  0  0  0
    7.7460   -9.1760   -5.0360 C   0  0  0  0  0  0  0  0  0  0  0  0
    8.7470   -8.4310   -5.6820 C   0  0  0  0  0  0  0  0  0  0  0  0
    8.4430   -7.2310   -6.3410 C   0  0  0  0  0  0  0  0  0  0  0  0
    7.1080   -6.8010   -6.3330 C   0  0  0  0  0  0  0  0  0  0  0  0
    6.1100   -7.5550   -5.6990 C   0  0  0  0  0  0  0  0  0  0  0  0
    9.4840   -6.4550   -7.1400 C   0  0  1  0  0  0  0  0  0  0  0  0
   10.5660   -5.9370   -6.3070 N   0  0  0  0  0  0  0  0  0  0  0  0
    9.9650   -7.3020   -8.3240 C   0  0  0  0  0  0  0  0  0  0  0  0
    5.9500   -7.0940   -2.3470 C   0  0  0  0  0  0  0  0  0  0  0  0
    6.1380   -5.7700   -1.9630 C   0  0  0  0  0  0  0  0  0  0  0  0
    2.9870   -4.5870   -2.5030 H   0  0  0  0  0  0  0  0  0  0  0  0
    2.6740   -6.9100   -3.2460 H   0  0  0  0  0  0  0  0  0  0  0  0
    5.7610  -11.3410   -5.3780 H   0  0  0  0  0  0  0  0  0  0  0  0
    3.1720  -14.7520   -4.3470 H   0  0  0  0  0  0  0  0  0  0  0  0
    2.0700  -13.3910   -4.1080 H   0  0  0  0  0  0  0  0  0  0  0  0
    3.2170  -13.8930   -2.8040 H   0  0  0  0  0  0  0  0  0  0  0  0
    2.5430  -11.5990   -2.5420 H   0  0  0  0  0  0  0  0  0  0  0  0
    2.8940   -9.2740   -1.9220 H   0  0  0  0  0  0  0  0  0  0  0  0
    8.0250  -10.1000   -4.5330 H   0  0  0  0  0  0  0  0  0  0  0  0
    9.7640   -8.8160   -5.6820 H   0  0  0  0  0  0  0  0  0  0  0  0
    6.8210   -5.8800   -6.8370 H   0  0  0  0  0  0  0  0  0  0  0  0
    5.0850   -7.1890   -5.7280 H   0  0  0  0  0  0  0  0  0  0  0  0
    9.0010   -5.5580   -7.5530 H   0  0  0  0  0  0  0  0  0  0  0  0
   11.0470   -6.6340   -5.7560 H   0  0  0  0  0  0  0  0  0  0  0  0
   10.6650   -6.7700   -8.9700 H   0  0  0  0  0  0  0  0  0  0  0  0
    9.1190   -7.5880   -8.9570 H   0  0  0  0  0  0  0  0  0  0  0  0
   10.4740   -8.2100   -7.9870 H   0  0  0  0  0  0  0  0  0  0  0  0
    6.7910   -7.7820   -2.2780 H   0  0  0  0  0  0  0  0  0  0  0  0
    7.1170   -5.4660   -1.5940 H   0  0  0  0  0  0  0  0  0  0  0  0
   11.4250   -5.0150   -6.8910 C   0  0  0  0  0  0  0  0  0  0  0  0
   11.6760   -4.9900   -8.0790 O   0  0  0  0  0  0  0  0  0  0  0  0
   11.9890   -3.9410   -6.0320 C   0  0  0  0  0  0  0  0  0  0  0  0
   11.6700   -3.7810   -4.6850 C   0  0  0  0  0  0  0  0  0  0  0  0
   12.1850   -2.6890   -3.9750 C   0  0  0  0  0  0  0  0  0  0  0  0
   13.0110   -1.7320   -4.5990 C   0  0  0  0  0  0  0  0  0  0  0  0
   13.5870   -0.5990   -3.8420 C   0  0  0  0  0  0  0  0  0  0  0  0
   14.9850   -0.3370   -3.7910 C   0  0  0  0  0  0  0  0  0  0  0  0
   15.4260    0.8050   -3.0870 C   0  0  0  0  0  0  0  0  0  0  0  0
   14.5410    1.6630   -2.4300 C   0  0  0  0  0  0  0  0  0  0  0  0
   15.1380    2.7200   -1.7940 O   0  0  0  0  0  0  0  0  0  0  0  0
   14.2930    3.6350   -1.1050 C   0  0  0  0  0  0  0  0  0  0  0  0
   13.1800    1.3920   -2.4650 C   0  0  0  0  0  0  0  0  0  0  0  0
   12.7120    0.2760   -3.1660 C   0  0  0  0  0  0  0  0  0  0  0  0
   15.9940   -1.2240   -4.4220 C   0  0  0  0  0  0  0  0  0  0  0  0
   16.9210   -0.7360   -5.3570 C   0  0  0  0  0  0  0  0  0  0  0  0
   17.8540   -1.5870   -5.9710 C   0  0  0  0  0  0  0  0  0  0  0  0
   17.8860   -2.9580   -5.6750 C   0  0  0  0  0  0  0  0  0  0  0  0
   16.9640   -3.4480   -4.7390 C   0  0  0  0  0  0  0  0  0  0  0  0
   16.0470   -2.5930   -4.1150 C   0  0  0  0  0  0  0  0  0  0  0  0
   18.9400   -3.8910   -6.2620 C   0  0  1  0  0  0  0  0  0  0  0  0
   18.8350   -4.0080   -7.7150 N   0  0  0  0  0  0  0  0  0  0  0  0
   20.3310   -3.4740   -5.7740 C   0  0  0  0  0  0  0  0  0  0  0  0
   13.2850   -1.8880   -5.9640 C   0  0  0  0  0  0  0  0  0  0  0  0
   12.7960   -2.9820   -6.6670 C   0  0  0  0  0  0  0  0  0  0  0  0
   11.0070   -4.4810   -4.1810 H   0  0  0  0  0  0  0  0  0  0  0  0
   11.9380   -2.5870   -2.9210 H   0  0  0  0  0  0  0  0  0  0  0  0
   16.4920    1.0250   -3.0350 H   0  0  0  0  0  0  0  0  0  0  0  0
   14.9330    4.3990   -0.6530 H   0  0  0  0  0  0  0  0  0  0  0  0
   13.7460    3.1400   -0.2960 H   0  0  0  0  0  0  0  0  0  0  0  0
   13.6090    4.1400   -1.7950 H   0  0  0  0  0  0  0  0  0  0  0  0
   12.4530    2.0230   -1.9660 H   0  0  0  0  0  0  0  0  0  0  0  0
   11.6380    0.0950   -3.1970 H   0  0  0  0  0  0  0  0  0  0  0  0
   16.9210    0.3200   -5.6220 H   0  0  0  0  0  0  0  0  0  0  0  0
   18.5690   -1.1570   -6.6690 H   0  0  0  0  0  0  0  0  0  0  0  0
   16.9560   -4.5020   -4.4680 H   0  0  0  0  0  0  0  0  0  0  0  0
   15.3560   -3.0120   -3.3840 H   0  0  0  0  0  0  0  0  0  0  0  0
   18.7470   -4.9070   -5.8890 H   0  0  0  0  0  0  0  0  0  0  0  0
   18.8870   -3.1140   -8.1950 H   0  0  0  0  0  0  0  0  0  0  0  0
   21.1100   -4.1800   -6.0730 H   0  0  0  0  0  0  0  0  0  0  0  0
   20.3630   -3.4360   -4.6810 H   0  0  0  0  0  0  0  0  0  0  0  0
   20.6180   -2.4960   -6.1710 H   0  0  0  0  0  0  0  0  0  0  0  0
   13.9000   -1.1610   -6.4920 H   0  0  0  0  0  0  0  0  0  0  0  0
   13.0290   -3.0750   -7.7240 H   0  0  0  0  0  0  0  0  0  0  0  0
   19.6020   -4.9720   -8.3430 C   0  0  0  0  0  0  0  0  0  0  0  0
   20.6980   -5.3390   -7.9220 O   0  0  0  0  0  0  0  0  0  0  0  0
   19.0320   -5.6770   -9.5180 C   0  0  0  0  0  0  0  0  0  0  0  0
   17.7660   -5.4120  -10.0360 C   0  0  0  0  0  0  0  0  0  0  0  0
   17.2820   -6.1750  -11.1100 C   0  0  0  0  0  0  0  0  0  0  0  0
   18.0430   -7.2140  -11.6800 C   0  0  0  0  0  0  0  0  0  0  0  0
   17.5480   -7.9760  -12.8510 C   0  0  0  0  0  0  0  0  0  0  0  0
   18.2900   -8.1030  -14.0580 C   0  0  0  0  0  0  0  0  0  0  0  0
   17.7540   -8.9060  -15.0910 C   0  0  0  0  0  0  0  0  0  0  0  0
   16.5170   -9.5510  -14.9780 C   0  0  0  0  0  0  0  0  0  0  0  0
   16.1500  -10.2850  -16.0730 O   0  0  0  0  0  0  0  0  0  0  0  0
   14.9020  -10.9660  -16.0280 C   0  0  0  0  0  0  0  0  0  0  0  0
   15.7820   -9.3970  -13.8090 C   0  0  0  0  0  0  0  0  0  0  0  0
   16.2950   -8.6210  -12.7610 C   0  0  0  0  0  0  0  0  0  0  0  0
   19.5870   -7.4140  -14.2840 C   0  0  0  0  0  0  0  0  0  0  0  0
   20.7460   -8.1280  -14.6270 C   0  0  0  0  0  0  0  0  0  0  0  0
   21.9840   -7.4850  -14.8000 C   0  0  0  0  0  0  0  0  0  0  0  0
   22.1070   -6.1000  -14.6270 C   0  0  0  0  0  0  0  0  0  0  0  0
   20.9460   -5.3790  -14.2970 C   0  0  0  0  0  0  0  0  0  0  0  0
   19.7090   -6.0230  -14.1410 C   0  0  0  0  0  0  0  0  0  0  0  0
   23.4100   -5.3510  -14.8770 C   0  0  1  0  0  0  0  0  0  0  0  0
   24.5480   -5.8250  -14.0960 N   0  0  0  0  0  0  0  0  0  0  0  0
   23.7970   -5.4260  -16.3610 C   0  0  0  0  0  0  0  0  0  0  0  0
   19.2990   -7.4880  -11.1190 C   0  0  0  0  0  0  0  0  0  0  0  0
   19.7910   -6.7250  -10.0620 C   0  0  0  0  0  0  0  0  0  0  0  0
   17.1410   -4.6310   -9.6140 H   0  0  0  0  0  0  0  0  0  0  0  0
   16.2960   -5.9430  -11.5110 H   0  0  0  0  0  0  0  0  0  0  0  0
   18.3070   -9.0210  -16.0220 H   0  0  0  0  0  0  0  0  0  0  0  0
   14.7840  -11.5040  -16.9740 H   0  0  0  0  0  0  0  0  0  0  0  0
   14.0670  -10.2630  -15.9410 H   0  0  0  0  0  0  0  0  0  0  0  0
   14.8800  -11.7070  -15.2230 H   0  0  0  0  0  0  0  0  0  0  0  0
   14.8130   -9.8660  -13.6730 H   0  0  0  0  0  0  0  0  0  0  0  0
   15.7050   -8.5300  -11.8500 H   0  0  0  0  0  0  0  0  0  0  0  0
   20.6960   -9.2090  -14.7510 H   0  0  0  0  0  0  0  0  0  0  0  0
   22.8450   -8.0830  -15.0830 H   0  0  0  0  0  0  0  0  0  0  0  0
   20.9840   -4.3000  -14.1630 H   0  0  0  0  0  0  0  0  0  0  0  0
   18.8370   -5.4230  -13.8850 H   0  0  0  0  0  0  0  0  0  0  0  0
   23.2530   -4.2940  -14.6250 H   0  0  0  0  0  0  0  0  0  0  0  0
   24.8230   -6.7820  -14.2490 H   0  0  0  0  0  0  0  0  0  0  0  0
   24.6960   -4.8300  -16.5580 H   0  0  0  0  0  0  0  0  0  0  0  0
   22.9970   -5.0590  -17.0100 H   0  0  0  0  0  0  0  0  0  0  0  0
   24.0330   -6.4560  -16.6530 H   0  0  0  0  0  0  0  0  0  0  0  0
   19.9220   -8.2890  -11.5130 H   0  0  0  0  0  0  0  0  0  0  0  0
   20.7740   -6.9610   -9.6570 H   0  0  0  0  0  0  0  0  0  0  0  0
   -2.3690   -6.6740    2.2260 C   0  0  0  0  0  0  0  0  0  0  0  0
   -2.8490   -5.3630    1.9350 O   0  0  0  0  0  0  0  0  0  0  0  0
   -2.5250   -7.3780    1.4020 H   0  0  0  0  0  0  0  0  0  0  0  0
   -2.8860   -7.0530    3.1100 H   0  0  0  0  0  0  0  0  0  0  0  0
   -1.3010   -6.5940    2.4570 H   0  0  0  0  0  0  0  0  0  0  0  0
   29.0580   -5.8370  -14.9820 C   0  0  0  0  0  0  0  0  0  0  0  0
   28.0080   -4.8360  -14.4690 C   0  0  0  0  0  0  0  0  0  0  0  0
   28.4870   -4.2820  -13.1240 C   0  0  0  0  0  0  0  0  0  0  0  0
   27.8890   -3.7160  -15.5170 C   0  0  0  0  0  0  0  0  0  0  0  0
   26.7740   -5.6000  -14.2980 O   0  0  0  0  0  0  0  0  0  0  0  0
   25.6180   -4.9590  -13.9900 C   0  0  0  0  0  0  0  0  0  0  0  0
   25.5050   -3.7640  -13.7750 O   0  0  0  0  0  0  0  0  0  0  0  0
   30.0330   -5.3560  -15.1320 H   0  0  0  0  0  0  0  0  0  0  0  0
   29.1910   -6.6650  -14.2780 H   0  0  0  0  0  0  0  0  0  0  0  0
   28.7490   -6.2790  -15.9360 H   0  0  0  0  0  0  0  0  0  0  0  0
   28.5030   -5.0700  -12.3640 H   0  0  0  0  0  0  0  0  0  0  0  0
   27.8240   -3.4940  -12.7530 H   0  0  0  0  0  0  0  0  0  0  0  0
   29.4930   -3.8560  -13.2060 H   0  0  0  0  0  0  0  0  0  0  0  0
   27.4900   -4.0970  -16.4630 H   0  0  0  0  0  0  0  0  0  0  0  0
   27.2250   -2.9090  -15.1930 H   0  0  0  0  0  0  0  0  0  0  0  0
   28.8660   -3.2570  -15.7160 H   0  0  0  0  0  0  0  0  0  0  0  0
  1178  1  0  0  0  0
  2  1  2  0  0  0  0
  3  1  1  0  0  0  0
  3  4  1  0  0  0  0
  4 26  1  0  0  0  0
  5  4  2  0  0  0  0
  5 27  1  0  0  0  0
  6  5  1  0  0  0  0
  7  6  1  0  0  0  0
  7 14  1  0  0  0  0
  8  7  2  0  0  0  0
  9  8  1  0  0  0  0
  9 10  2  0  0  0  0
 10 13  1  0  0  0  0
 11 10  1  0  0  0  0
 11 12  1  0  0  0  0
 12 30  1  0  0  0  0
 13 14  2  0  0  0  0
 13 32  1  0  0  0  0
 14 33  1  0  0  0  0
 15  8  1  0  0  0  0
 15 20  1  0  0  0  0
 16 15  2  0  0  0  0
 17 16  1  0  0  0  0
 17 18  2  0  0  0  0
 18 19  1  0  0  0  0
 19 20  2  0  0  0  0
 19 36  1  0  0  0  0
 20 37  1  0  0  0  0
 21 18  1  0  0  0  0
 21 38  1  1  0  0  0
 22 21  1  0  0  0  0
 23 21  1  0  0  0  0
 23 40  1  0  0  0  0
 23 41  1  0  0  0  0
 24 25  1  0  0  0  0
 24  6  2  0  0  0  0
 25  3  2  0  0  0  0
 28  9  1  0  0  0  0
 29 12  1  0  0  0  0
 31 12  1  0  0  0  0
 34 16  1  0  0  0  0
 35 17  1  0  0  0  0
 39 22  1  0  0  0  0
 42 23  1  0  0  0  0
 43 24  1  0  0  0  0
 44 25  1  0  0  0  0
 45 22  1  0  0  0  0
 45 46  2  0  0  0  0
 47 69  1  0  0  0  0
 47 45  1  0  0  0  0
 48 47  2  0  0  0  0
 49 50  2  0  0  0  0
 49 48  1  0  0  0  0
 50 68  1  0  0  0  0
 51 50  1  0  0  0  0
 51 58  1  0  0  0  0
 52 51  2  0  0  0  0
 53 52  1  0  0  0  0
 53 54  2  0  0  0  0
 54 57  1  0  0  0  0
 55 54  1  0  0  0  0
 55 56  1  0  0  0  0
 56 75  1  0  0  0  0
 57 58  2  0  0  0  0
 57 76  1  0  0  0  0
 58 77  1  0  0  0  0
 59 52  1  0  0  0  0
 60 59  1  0  0  0  0
 60 78  1  0  0  0  0
 61 79  1  0  0  0  0
 61 60  2  0  0  0  0
 62 63  2  0  0  0  0
 62 61  1  0  0  0  0
 63 64  1  0  0  0  0
 64 59  2  0  0  0  0
 65 82  1  6  0  0  0
 65 62  1  0  0  0  0
 65 66  1  0  0  0  0
 66 83  1  0  0  0  0
 67 86  1  0  0  0  0
 67 65  1  0  0  0  0
 68 87  1  0  0  0  0
 68 69  2  0  0  0  0
 69 88  1  0  0  0  0
 70 48  1  0  0  0  0
 71 49  1  0  0  0  0
 72 53  1  0  0  0  0
 73 56  1  0  0  0  0
 74 56  1  0  0  0  0
 80 63  1  0  0  0  0
 81 64  1  0  0  0  0
 84 67  1  0  0  0  0
 85 67  1  0  0  0  0
 89 66  1  0  0  0  0
 89 91  1  0  0  0  0
 90 89  2  0  0  0  0
 91 92  1  0  0  0  0
 92114  1  0  0  0  0
 92 93  2  0  0  0  0
 93115  1  0  0  0  0
 94 93  1  0  0  0  0
 94 95  1  0  0  0  0
 95 96  2  0  0  0  0
 95102  1  0  0  0  0
 96 97  1  0  0  0  0
 97116  1  0  0  0  0
 97 98  2  0  0  0  0
 98 99  1  0  0  0  0
 99100  1  0  0  0  0
100117  1  0  0  0  0
100118  1  0  0  0  0
101 98  1  0  0  0  0
101120  1  0  0  0  0
102101  2  0  0  0  0
103108  1  0  0  0  0
103 96  1  0  0  0  0
104103  2  0  0  0  0
105106  2  0  0  0  0
105104  1  0  0  0  0
106107  1  0  0  0  0
107124  1  0  0  0  0
107108  2  0  0  0  0
108125  1  0  0  0  0
109126  1  1  0  0  0
109111  1  0  0  0  0
109106  1  0  0  0  0
110109  1  0  0  0  0
111129  1  0  0  0  0
112 94  2  0  0  0  0
113 91  2  0  0  0  0
113112  1  0  0  0  0
119100  1  0  0  0  0
121102  1  0  0  0  0
122104  1  0  0  0  0
123105  1  0  0  0  0
127110  1  0  0  0  0
128111  1  0  0  0  0
130111  1  0  0  0  0
131112  1  0  0  0  0
132113  1  0  0  0  0
133134  2  0  0  0  0
133110  1  0  0  0  0
135133  1  0  0  0  0
136158  1  0  0  0  0
136135  1  0  0  0  0
137136  2  0  0  0  0
138156  2  0  0  0  0
138137  1  0  0  0  0
139146  1  0  0  0  0
139138  1  0  0  0  0
140139  2  0  0  0  0
141142  2  0  0  0  0
141140  1  0  0  0  0
142145  1  0  0  0  0
143144  1  0  0  0  0
143142  1  0  0  0  0
144162  1  0  0  0  0
144163  1  0  0  0  0
145164  1  0  0  0  0
145146  2  0  0  0  0
146165  1  0  0  0  0
147152  1  0  0  0  0
147140  1  0  0  0  0
148147  2  0  0  0  0
149148  1  0  0  0  0
149150  2  0  0  0  0
150151  1  0  0  0  0
151168  1  0  0  0  0
151152  2  0  0  0  0
152169  1  0  0  0  0
153150  1  0  0  0  0
153170  1  1  0  0  0
153154  1  0  0  0  0
154187  1  0  0  0  0
155153  1  0  0  0  0
156157  1  0  0  0  0
157176  1  0  0  0  0
157135  2  0  0  0  0
159137  1  0  0  0  0
160141  1  0  0  0  0
161144  1  0  0  0  0
166148  1  0  0  0  0
167149  1  0  0  0  0
171154  1  0  0  0  0
172155  1  0  0  0  0
173155  1  0  0  0  0
174155  1  0  0  0  0
175156  1  0  0  0  0
177181  1  0  0  0  0
177180  1  0  0  0  0
178177  1  0  0  0  0
179177  1  0  0  0  0
182183  1  0  0  0  0
182190  1  0  0  0  0
183186  1  0  0  0  0
183184  1  0  0  0  0
184193  1  0  0  0  0
184192  1  0  0  0  0
185196  1  0  0  0  0
185183  1  0  0  0  0
186187  1  0  0  0  0
187188  2  0  0  0  0
189182  1  0  0  0  0
191182  1  0  0  0  0
194184  1  0  0  0  0
195185  1  0  0  0  0
197185  1  0  0  0  0
M  END
