pop_tetramer.pdb
 OpenBabel08262511093D

197208  0  0  1  0  0  0  0  0999 V2000
   -2.4150   -4.9340    0.7060 C   0  0  0  0  0  0  0  0  0  0  0  0
   -2.0510   -5.6410   -0.2210 O   0  0  0  0  0  0  0  0  0  0  0  0
   -2.4190   -3.4490    0.6490 C   0  0  0  0  0  0  0  0  0  0  0  0
   -2.8370   -2.6470    1.7170 C   0  0  0  0  0  0  0  0  0  0  0  0
   -2.6980   -1.2550    1.6460 C   0  0  0  0  0  0  0  0  0  0  0  0
   -2.1480   -0.6390    0.5080 C   0  0  0  0  0  0  0  0  0  0  0  0
   -1.9510    0.8250    0.4470 C   0  0  0  0  0  0  0  0  0  0  0  0
   -0.6900    1.4260    0.1810 C   0  0  0  0  0  0  0  0  0  0  0  0
   -0.6290    2.8330    0.0730 C   0  0  0  0  0  0  0  0  0  0  0  0
   -1.7580    3.6440    0.2340 C   0  0  0  0  0  0  0  0  0  0  0  0
   -1.5290    4.9850    0.0870 O   0  0  0  0  0  0  0  0  0  0  0  0
   -2.6490    5.8520    0.2230 C   0  0  0  0  0  0  0  0  0  0  0  0
   -2.9810    3.0520    0.5210 C   0  0  0  0  0  0  0  0  0  0  0  0
   -3.0730    1.6610    0.6250 C   0  0  0  0  0  0  0  0  0  0  0  0
    0.5630    0.6440    0.0280 C   0  0  0  0  0  0  0  0  0  0  0  0
    1.3410    0.7310   -1.1380 C   0  0  0  0  0  0  0  0  0  0  0  0
    2.5220   -0.0110   -1.2860 C   0  0  0  0  0  0  0  0  0  0  0  0
    2.9660   -0.8650   -0.2670 C   0  0  0  0  0  0  0  0  0  0  0  0
    2.1850   -0.9680    0.8930 C   0  0  0  0  0  0  0  0  0  0  0  0
    1.0120   -0.2170    1.0420 C   0  0  0  0  0  0  0  0  0  0  0  0
    4.3060   -1.5830   -0.3390 C   0  0  1  0  0  0  0  0  0  0  0  0
    4.3580   -2.5660   -1.4110 N   0  0  0  0  0  0  0  0  0  0  0  0
    5.4480   -0.5650   -0.3700 C   0  0  0  0  0  0  0  0  0  0  0  0
   -1.7770   -1.4580   -0.5710 C   0  0  0  0  0  0  0  0  0  0  0  0
   -1.9010   -2.8460   -0.5000 C   0  0  0  0  0  0  0  0  0  0  0  0
   -3.2430   -3.0890    2.6240 H   0  0  0  0  0  0  0  0  0  0  0  0
   -2.9970   -0.6530    2.5020 H   0  0  0  0  0  0  0  0  0  0  0  0
    0.3250    3.3170   -0.1310 H   0  0  0  0  0  0  0  0  0  0  0  0
   -2.3010    6.8760    0.0530 H   0  0  0  0  0  0  0  0  0  0  0  0
   -3.0630    5.8050    1.2360 H   0  0  0  0  0  0  0  0  0  0  0  0
   -3.4150    5.6350   -0.5280 H   0  0  0  0  0  0  0  0  0  0  0  0
   -3.8850    3.6360    0.6610 H   0  0  0  0  0  0  0  0  0  0  0  0
   -4.0490    1.2220    0.8290 H   0  0  0  0  0  0  0  0  0  0  0  0
    1.0310    1.3890   -1.9480 H   0  0  0  0  0  0  0  0  0  0  0  0
    3.1050    0.1080   -2.1960 H   0  0  0  0  0  0  0  0  0  0  0  0
    2.4940   -1.6180    1.7100 H   0  0  0  0  0  0  0  0  0  0  0  0
    0.4480   -0.3090    1.9680 H   0  0  0  0  0  0  0  0  0  0  0  0
    4.4260   -2.1710    0.5830 H   0  0  0  0  0  0  0  0  0  0  0  0
    3.9360   -2.3430   -2.3020 H   0  0  0  0  0  0  0  0  0  0  0  0
    6.4290   -1.0430   -0.3090 H   0  0  0  0  0  0  0  0  0  0  0  0
    5.3750    0.1120    0.4880 H   0  0  0  0  0  0  0  0  0  0  0  0
    5.4340    0.0330   -1.2850 H   0  0  0  0  0  0  0  0  0  0  0  0
   -1.3500   -1.0170   -1.4700 H   0  0  0  0  0  0  0  0  0  0  0  0
   -1.5600   -3.4530   -1.3370 H   0  0  0  0  0  0  0  0  0  0  0  0
    5.3750   -3.5020   -1.4090 C   0  0  0  0  0  0  0  0  0  0  0  0
    6.4470   -3.3150   -0.8410 O   0  0  0  0  0  0  0  0  0  0  0  0
    5.1100   -4.8370   -2.0120 C   0  0  0  0  0  0  0  0  0  0  0  0
    3.8540   -5.2480   -2.4680 C   0  0  0  0  0  0  0  0  0  0  0  0
    3.6610   -6.5780   -2.8790 C   0  0  0  0  0  0  0  0  0  0  0  0
    4.7080   -7.5170   -2.8330 C   0  0  0  0  0  0  0  0  0  0  0  0
    4.5280   -8.9090   -3.3020 C   0  0  0  0  0  0  0  0  0  0  0  0
    5.3580   -9.4910   -4.3010 C   0  0  0  0  0  0  0  0  0  0  0  0
    5.1520  -10.8480   -4.6330 C   0  0  0  0  0  0  0  0  0  0  0  0
    4.1600  -11.6240   -4.0240 C   0  0  0  0  0  0  0  0  0  0  0  0
    4.1000  -12.9210   -4.4540 O   0  0  0  0  0  0  0  0  0  0  0  0
    3.1070  -13.7540   -3.8660 C   0  0  0  0  0  0  0  0  0  0  0  0
    3.3400  -11.0430   -3.0640 C   0  0  0  0  0  0  0  0  0  0  0  0
    3.5260   -9.7020   -2.7080 C   0  0  0  0  0  0  0  0  0  0  0  0
    6.4160   -8.7300   -5.0120 C   0  0  0  0  0  0  0  0  0  0  0  0
    7.7540   -9.1560   -5.0090 C   0  0  0  0  0  0  0  0  0  0  0  0
    8.7540   -8.4220   -5.6660 C   0  0  0  0  0  0  0  0  0  0  0  0
    8.4430   -7.2370   -6.3500 C   0  0  0  0  0  0  0  0  0  0  0  0
    7.1120   -6.7980   -6.3390 C   0  0  0  0  0  0  0  0  0  0  0  0
    6.1160   -7.5410   -5.6960 C   0  0  0  0  0  0  0  0  0  0  0  0
    9.4750   -6.4890   -7.1810 C   0  0  1  0  0  0  0  0  0  0  0  0
   10.5450   -5.9270   -6.3700 N   0  0  0  0  0  0  0  0  0  0  0  0
    9.9580   -7.3720   -8.3340 C   0  0  0  0  0  0  0  0  0  0  0  0
    5.9510   -7.0920   -2.3430 C   0  0  0  0  0  0  0  0  0  0  0  0
    6.1540   -5.7690   -1.9570 C   0  0  0  0  0  0  0  0  0  0  0  0
    3.0080   -4.5680   -2.4800 H   0  0  0  0  0  0  0  0  0  0  0  0
    2.6780   -6.8820   -3.2360 H   0  0  0  0  0  0  0  0  0  0  0  0
    5.7750  -11.3150   -5.3950 H   0  0  0  0  0  0  0  0  0  0  0  0
    3.1980  -14.7490   -4.3130 H   0  0  0  0  0  0  0  0  0  0  0  0
    2.1000  -13.3830   -4.0840 H   0  0  0  0  0  0  0  0  0  0  0  0
    3.2650  -13.8600   -2.7880 H   0  0  0  0  0  0  0  0  0  0  0  0
    2.5540  -11.6000   -2.5650 H   0  0  0  0  0  0  0  0  0  0  0  0
    2.8860   -9.2810   -1.9340 H   0  0  0  0  0  0  0  0  0  0  0  0
    8.0320  -10.0730   -4.4910 H   0  0  0  0  0  0  0  0  0  0  0  0
    9.7720   -8.8030   -5.6630 H   0  0  0  0  0  0  0  0  0  0  0  0
    6.8270   -5.8810   -6.8530 H   0  0  0  0  0  0  0  0  0  0  0  0
    5.0910   -7.1760   -5.7280 H   0  0  0  0  0  0  0  0  0  0  0  0
    8.9800   -5.6170   -7.6320 H   0  0  0  0  0  0  0  0  0  0  0  0
   10.9270   -6.4840   -5.6170 H   0  0  0  0  0  0  0  0  0  0  0  0
   10.6100   -6.8320   -9.0240 H   0  0  0  0  0  0  0  0  0  0  0  0
    9.1050   -7.7280   -8.9220 H   0  0  0  0  0  0  0  0  0  0  0  0
   10.5150   -8.2420   -7.9740 H   0  0  0  0  0  0  0  0  0  0  0  0
    6.7830   -7.7900   -2.2670 H   0  0  0  0  0  0  0  0  0  0  0  0
    7.1330   -5.4790   -1.5790 H   0  0  0  0  0  0  0  0  0  0  0  0
   11.3820   -4.9810   -6.9320 C   0  0  0  0  0  0  0  0  0  0  0  0
   11.5610   -4.8940   -8.1430 O   0  0  0  0  0  0  0  0  0  0  0  0
   11.9930   -3.9540   -6.0430 C   0  0  0  0  0  0  0  0  0  0  0  0
   11.6760   -3.8040   -4.6910 C   0  0  0  0  0  0  0  0  0  0  0  0
   12.1880   -2.7110   -3.9710 C   0  0  0  0  0  0  0  0  0  0  0  0
   13.0120   -1.7490   -4.5870 C   0  0  0  0  0  0  0  0  0  0  0  0
   13.5860   -0.6150   -3.8290 C   0  0  0  0  0  0  0  0  0  0  0  0
   14.9850   -0.3600   -3.7760 C   0  0  0  0  0  0  0  0  0  0  0  0
   15.4290    0.7800   -3.0690 C   0  0  0  0  0  0  0  0  0  0  0  0
   14.5440    1.6480   -2.4190 C   0  0  0  0  0  0  0  0  0  0  0  0
   15.1380    2.7050   -1.7850 O   0  0  0  0  0  0  0  0  0  0  0  0
   14.2830    3.6160   -1.1030 C   0  0  0  0  0  0  0  0  0  0  0  0
   13.1800    1.3860   -2.4650 C   0  0  0  0  0  0  0  0  0  0  0  0
   12.7100    0.2690   -3.1640 C   0  0  0  0  0  0  0  0  0  0  0  0
   15.9910   -1.2450   -4.4190 C   0  0  0  0  0  0  0  0  0  0  0  0
   16.9020   -0.7520   -5.3680 C   0  0  0  0  0  0  0  0  0  0  0  0
   17.8330   -1.5970   -5.9950 C   0  0  0  0  0  0  0  0  0  0  0  0
   17.8820   -2.9650   -5.6900 C   0  0  0  0  0  0  0  0  0  0  0  0
   16.9660   -3.4640   -4.7530 C   0  0  0  0  0  0  0  0  0  0  0  0
   16.0500   -2.6150   -4.1190 C   0  0  0  0  0  0  0  0  0  0  0  0
   18.9580   -3.8830   -6.2550 C   0  0  1  0  0  0  0  0  0  0  0  0
   18.8550   -4.0370   -7.7020 N   0  0  0  0  0  0  0  0  0  0  0  0
   20.3350   -3.4300   -5.7630 C   0  0  0  0  0  0  0  0  0  0  0  0
   13.2920   -1.9020   -5.9510 C   0  0  0  0  0  0  0  0  0  0  0  0
   12.8070   -2.9960   -6.6630 C   0  0  0  0  0  0  0  0  0  0  0  0
   11.0100   -4.4990   -4.1870 H   0  0  0  0  0  0  0  0  0  0  0  0
   11.9360   -2.6100   -2.9160 H   0  0  0  0  0  0  0  0  0  0  0  0
   16.4950    0.9950   -3.0120 H   0  0  0  0  0  0  0  0  0  0  0  0
   14.9090    4.4010   -0.6680 H   0  0  0  0  0  0  0  0  0  0  0  0
   13.7530    3.1200   -0.2830 H   0  0  0  0  0  0  0  0  0  0  0  0
   13.5820    4.0960   -1.7940 H   0  0  0  0  0  0  0  0  0  0  0  0
   12.4520    2.0290   -1.9810 H   0  0  0  0  0  0  0  0  0  0  0  0
   11.6350    0.0990   -3.2070 H   0  0  0  0  0  0  0  0  0  0  0  0
   16.8950    0.3040   -5.6310 H   0  0  0  0  0  0  0  0  0  0  0  0
   18.5370   -1.1660   -6.7030 H   0  0  0  0  0  0  0  0  0  0  0  0
   16.9690   -4.5190   -4.4860 H   0  0  0  0  0  0  0  0  0  0  0  0
   15.3690   -3.0410   -3.3840 H   0  0  0  0  0  0  0  0  0  0  0  0
   18.7910   -4.8930   -5.8570 H   0  0  0  0  0  0  0  0  0  0  0  0
   18.6960   -3.2010   -8.2480 H   0  0  0  0  0  0  0  0  0  0  0  0
   21.1230   -4.1430   -6.0200 H   0  0  0  0  0  0  0  0  0  0  0  0
   20.3400   -3.3460   -4.6700 H   0  0  0  0  0  0  0  0  0  0  0  0
   20.6200   -2.4620   -6.1860 H   0  0  0  0  0  0  0  0  0  0  0  0
   13.9040   -1.1700   -6.4750 H   0  0  0  0  0  0  0  0  0  0  0  0
   13.0460   -3.0780   -7.7220 H   0  0  0  0  0  0  0  0  0  0  0  0
   19.6070   -5.0150   -8.3250 C   0  0  0  0  0  0  0  0  0  0  0  0
   20.6660   -5.4340   -7.8690 O   0  0  0  0  0  0  0  0  0  0  0  0
   19.0390   -5.6710   -9.5350 C   0  0  0  0  0  0  0  0  0  0  0  0
   17.7850   -5.3670  -10.0720 C   0  0  0  0  0  0  0  0  0  0  0  0
   17.2890   -6.1160  -11.1540 C   0  0  0  0  0  0  0  0  0  0  0  0
   18.0260   -7.1850  -11.7100 C   0  0  0  0  0  0  0  0  0  0  0  0
   17.5340   -7.9400  -12.8750 C   0  0  0  0  0  0  0  0  0  0  0  0
   18.2900   -8.0650  -14.0730 C   0  0  0  0  0  0  0  0  0  0  0  0
   17.7560   -8.8620  -15.1150 C   0  0  0  0  0  0  0  0  0  0  0  0
   16.5370   -9.5190  -15.0030 C   0  0  0  0  0  0  0  0  0  0  0  0
   16.1590  -10.2570  -16.0890 O   0  0  0  0  0  0  0  0  0  0  0  0
   14.9110  -10.9360  -16.0240 C   0  0  0  0  0  0  0  0  0  0  0  0
   15.7920   -9.3800  -13.8240 C   0  0  0  0  0  0  0  0  0  0  0  0
   16.2930   -8.6060  -12.7820 C   0  0  0  0  0  0  0  0  0  0  0  0
   19.5970   -7.3880  -14.2830 C   0  0  0  0  0  0  0  0  0  0  0  0
   20.7540   -8.1140  -14.6130 C   0  0  0  0  0  0  0  0  0  0  0  0
   21.9980   -7.4760  -14.7860 C   0  0  0  0  0  0  0  0  0  0  0  0
   22.1230   -6.0920  -14.6260 C   0  0  0  0  0  0  0  0  0  0  0  0
   20.9720   -5.3640  -14.2890 C   0  0  0  0  0  0  0  0  0  0  0  0
   19.7320   -6.0000  -14.1370 C   0  0  0  0  0  0  0  0  0  0  0  0
   23.4170   -5.3400  -14.8970 C   0  0  1  0  0  0  0  0  0  0  0  0
   24.5580   -5.8120  -14.1290 N   0  0  0  0  0  0  0  0  0  0  0  0
   23.7720   -5.4110  -16.3880 C   0  0  0  0  0  0  0  0  0  0  0  0
   19.2610   -7.4960  -11.1250 C   0  0  0  0  0  0  0  0  0  0  0  0
   19.7690   -6.7420  -10.0690 C   0  0  0  0  0  0  0  0  0  0  0  0
   17.1720   -4.5730   -9.6560 H   0  0  0  0  0  0  0  0  0  0  0  0
   16.3160   -5.8580  -11.5690 H   0  0  0  0  0  0  0  0  0  0  0  0
   18.3100   -8.9720  -16.0460 H   0  0  0  0  0  0  0  0  0  0  0  0
   14.7680  -11.4660  -16.9720 H   0  0  0  0  0  0  0  0  0  0  0  0
   14.0810  -10.2310  -15.9110 H   0  0  0  0  0  0  0  0  0  0  0  0
   14.9070  -11.6840  -15.2240 H   0  0  0  0  0  0  0  0  0  0  0  0
   14.8440   -9.8610  -13.6810 H   0  0  0  0  0  0  0  0  0  0  0  0
   15.7110   -8.5260  -11.8590 H   0  0  0  0  0  0  0  0  0  0  0  0
   20.6970   -9.1930  -14.7430 H   0  0  0  0  0  0  0  0  0  0  0  0
   22.8570   -8.0810  -15.0620 H   0  0  0  0  0  0  0  0  0  0  0  0
   21.0190   -4.2840  -14.1550 H   0  0  0  0  0  0  0  0  0  0  0  0
   18.8630   -5.3910  -13.8940 H   0  0  0  0  0  0  0  0  0  0  0  0
   23.2630   -4.2820  -14.6440 H   0  0  0  0  0  0  0  0  0  0  0  0
   24.8470   -6.7650  -14.2900 H   0  0  0  0  0  0  0  0  0  0  0  0
   24.6730   -4.8250  -16.6040 H   0  0  0  0  0  0  0  0  0  0  0  0
   22.9600   -5.0290  -17.0140 H   0  0  0  0  0  0  0  0  0  0  0  0
   23.9850   -6.4430  -16.6940 H   0  0  0  0  0  0  0  0  0  0  0  0
   19.8540   -8.3280  -11.5030 H   0  0  0  0  0  0  0  0  0  0  0  0
   20.7360   -7.0140   -9.6500 H   0  0  0  0  0  0  0  0  0  0  0  0
   -2.3680   -6.7100    2.2170 C   0  0  0  0  0  0  0  0  0  0  0  0
   -2.7440   -5.3590    1.9510 O   0  0  0  0  0  0  0  0  0  0  0  0
   -2.6100   -7.3850    1.3900 H   0  0  0  0  0  0  0  0  0  0  0  0
   -2.9020   -7.0470    3.1090 H   0  0  0  0  0  0  0  0  0  0  0  0
   -1.2930   -6.7340    2.4250 H   0  0  0  0  0  0  0  0  0  0  0  0
   29.0290   -5.8640  -14.9770 C   0  0  0  0  0  0  0  0  0  0  0  0
   28.0030   -4.8450  -14.4540 C   0  0  0  0  0  0  0  0  0  0  0  0
   28.4830   -4.3020  -13.1070 C   0  0  0  0  0  0  0  0  0  0  0  0
   27.8840   -3.7300  -15.5070 C   0  0  0  0  0  0  0  0  0  0  0  0
   26.7690   -5.5980  -14.2820 O   0  0  0  0  0  0  0  0  0  0  0  0
   25.6140   -4.9440  -14.0080 C   0  0  0  0  0  0  0  0  0  0  0  0
   25.5040   -3.7430  -13.8110 O   0  0  0  0  0  0  0  0  0  0  0  0
   30.0130   -5.4070  -15.1260 H   0  0  0  0  0  0  0  0  0  0  0  0
   29.1370   -6.7060  -14.2850 H   0  0  0  0  0  0  0  0  0  0  0  0
   28.7010   -6.2880  -15.9350 H   0  0  0  0  0  0  0  0  0  0  0  0
   28.5010   -5.0980  -12.3540 H   0  0  0  0  0  0  0  0  0  0  0  0
   27.8140   -3.5240  -12.7250 H   0  0  0  0  0  0  0  0  0  0  0  0
   29.4860   -3.8710  -13.1840 H   0  0  0  0  0  0  0  0  0  0  0  0
   27.4610   -4.1150  -16.4410 H   0  0  0  0  0  0  0  0  0  0  0  0
   27.2360   -2.9120  -15.1800 H   0  0  0  0  0  0  0  0  0  0  0  0
   28.8630   -3.2870  -15.7260 H   0  0  0  0  0  0  0  0  0  0  0  0
  1178  1  0  0  0  0
  2  1  2  0  0  0  0
  3  1  1  0  0  0  0
  3  4  1  0  0  0  0
  4 26  1  0  0  0  0
  5  4  2  0  0  0  0
  5 27  1  0  0  0  0
  6  5  1  0  0  0  0
  7  6  1  0  0  0  0
  7 14  1  0  0  0  0
  8  7  2  0  0  0  0
  9  8  1  0  0  0  0
  9 10  2  0  0  0  0
 10 13  1  0  0  0  0
 11 12  1  0  0  0  0
 11 10  1  0  0  0  0
 12 30  1  0  0  0  0
 13 14  2  0  0  0  0
 13 32  1  0  0  0  0
 14 33  1  0  0  0  0
 15  8  1  0  0  0  0
 15 20  1  0  0  0  0
 16 15  2  0  0  0  0
 17 16  1  0  0  0  0
 17 18  2  0  0  0  0
 18 19  1  0  0  0  0
 19 20  2  0  0  0  0
 19 36  1  0  0  0  0
 20 37  1  0  0  0  0
 21 18  1  0  0  0  0
 21 38  1  1  0  0  0
 22 45  1  0  0  0  0
 22 21  1  0  0  0  0
 23 21  1  0  0  0  0
 23 40  1  0  0  0  0
 23 41  1  0  0  0  0
 24 25  1  0  0  0  0
 24  6  2  0  0  0  0
 25  3  2  0  0  0  0
 28  9  1  0  0  0  0
 29 12  1  0  0  0  0
 31 12  1  0  0  0  0
 34 16  1  0  0  0  0
 35 17  1  0  0  0  0
 39 22  1  0  0  0  0
 42 23  1  0  0  0  0
 43 24  1  0  0  0  0
 44 25  1  0  0  0  0
 45 46  2  0  0  0  0
 47 69  1  0  0  0  0
 47 45  1  0  0  0  0
 48 47  2  0  0  0  0
 49 50  2  0  0  0  0
 49 48  1  0  0  0  0
 50 68  1  0  0  0  0
 51 50  1  0  0  0  0
 51 58  1  0  0  0  0
 52 51  2  0  0  0  0
 53 52  1  0  0  0  0
 53 54  2  0  0  0  0
 54 57  1  0  0  0  0
 55 54  1  0  0  0  0
 55 56  1  0  0  0  0
 56 75  1  0  0  0  0
 57 58  2  0  0  0  0
 57 76  1  0  0  0  0
 58 77  1  0  0  0  0
 59 60  1  0  0  0  0
 59 52  1  0  0  0  0
 60 78  1  0  0  0  0
 61 79  1  0  0  0  0
 61 60  2  0  0  0  0
 62 63  2  0  0  0  0
 62 61  1  0  0  0  0
 63 64  1  0  0  0  0
 64 59  2  0  0  0  0
 65 82  1  6  0  0  0
 65 66  1  0  0  0  0
 65 62  1  0  0  0  0
 66 83  1  0  0  0  0
 67 86  1  0  0  0  0
 67 65  1  0  0  0  0
 68 87  1  0  0  0  0
 68 69  2  0  0  0  0
 69 88  1  0  0  0  0
 70 48  1  0  0  0  0
 71 49  1  0  0  0  0
 72 53  1  0  0  0  0
 73 56  1  0  0  0  0
 74 56  1  0  0  0  0
 80 63  1  0  0  0  0
 81 64  1  0  0  0  0
 84 67  1  0  0  0  0
 85 67  1  0  0  0  0
 89 66  1  0  0  0  0
 89 91  1  0  0  0  0
 90 89  2  0  0  0  0
 91 92  1  0  0  0  0
 92114  1  0  0  0  0
 92 93  2  0  0  0  0
 93115  1  0  0  0  0
 94 93  1  0  0  0  0
 94 95  1  0  0  0  0
 95 96  2  0  0  0  0
 95102  1  0  0  0  0
 96 97  1  0  0  0  0
 97116  1  0  0  0  0
 97 98  2  0  0  0  0
 98 99  1  0  0  0  0
 99100  1  0  0  0  0
100117  1  0  0  0  0
100118  1  0  0  0  0
101 98  1  0  0  0  0
101120  1  0  0  0  0
102101  2  0  0  0  0
103108  1  0  0  0  0
103 96  1  0  0  0  0
104103  2  0  0  0  0
105106  2  0  0  0  0
105104  1  0  0  0  0
106107  1  0  0  0  0
107124  1  0  0  0  0
107108  2  0  0  0  0
108125  1  0  0  0  0
109126  1  1  0  0  0
109111  1  0  0  0  0
109106  1  0  0  0  0
110109  1  0  0  0  0
111129  1  0  0  0  0
112 94  2  0  0  0  0
113 91  2  0  0  0  0
113112  1  0  0  0  0
119100  1  0  0  0  0
121102  1  0  0  0  0
122104  1  0  0  0  0
123105  1  0  0  0  0
127110  1  0  0  0  0
128111  1  0  0  0  0
130111  1  0  0  0  0
131112  1  0  0  0  0
132113  1  0  0  0  0
133134  2  0  0  0  0
133110  1  0  0  0  0
135133  1  0  0  0  0
136158  1  0  0  0  0
136135  2  0  0  0  0
137136  1  0  0  0  0
138137  2  0  0  0  0
138156  1  0  0  0  0
139146  1  0  0  0  0
139138  1  0  0  0  0
140139  2  0  0  0  0
141142  2  0  0  0  0
141140  1  0  0  0  0
142145  1  0  0  0  0
143144  1  0  0  0  0
143142  1  0  0  0  0
144162  1  0  0  0  0
144163  1  0  0  0  0
145164  1  0  0  0  0
145146  2  0  0  0  0
146165  1  0  0  0  0
147152  1  0  0  0  0
147140  1  0  0  0  0
148147  2  0  0  0  0
149150  2  0  0  0  0
149148  1  0  0  0  0
150151  1  0  0  0  0
151168  1  0  0  0  0
151152  2  0  0  0  0
152169  1  0  0  0  0
153170  1  1  0  0  0
153150  1  0  0  0  0
153154  1  0  0  0  0
154187  1  0  0  0  0
155153  1  0  0  0  0
156157  2  0  0  0  0
157176  1  0  0  0  0
157135  1  0  0  0  0
159137  1  0  0  0  0
160141  1  0  0  0  0
161144  1  0  0  0  0
166148  1  0  0  0  0
167149  1  0  0  0  0
171154  1  0  0  0  0
172155  1  0  0  0  0
173155  1  0  0  0  0
174155  1  0  0  0  0
175156  1  0  0  0  0
177181  1  0  0  0  0
177180  1  0  0  0  0
178177  1  0  0  0  0
179177  1  0  0  0  0
182183  1  0  0  0  0
182190  1  0  0  0  0
183186  1  0  0  0  0
183184  1  0  0  0  0
184193  1  0  0  0  0
184192  1  0  0  0  0
185196  1  0  0  0  0
185183  1  0  0  0  0
186187  1  0  0  0  0
187188  2  0  0  0  0
189182  1  0  0  0  0
191182  1  0  0  0  0
194184  1  0  0  0  0
195185  1  0  0  0  0
197185  1  0  0  0  0
M  END
