pop_trimer.pdb
  -OEChem-09112521163D

153161  0     1  0  0  0  0  0999 V2000
   -2.4800   -4.9410    0.7180 C   0  0  0  0  0  0  0  0  0  0  0  0
   -2.0950   -5.6510   -0.1990 O   0  0  0  0  0  0  0  0  0  0  0  0
   -2.4400   -3.4560    0.6660 C   0  0  0  0  0  0  0  0  0  0  0  0
   -2.8470   -2.6420    1.7290 C   0  0  0  0  0  0  0  0  0  0  0  0
   -2.6940   -1.2500    1.6460 C   0  0  0  0  0  0  0  0  0  0  0  0
   -2.1360   -0.6420    0.5080 C   0  0  0  0  0  0  0  0  0  0  0  0
   -1.9520    0.8290    0.4360 C   0  0  0  0  0  0  0  0  0  0  0  0
   -0.7000    1.4450    0.1670 C   0  0  0  0  0  0  0  0  0  0  0  0
   -0.6570    2.8550    0.0540 C   0  0  0  0  0  0  0  0  0  0  0  0
   -1.7910    3.6590    0.2290 C   0  0  0  0  0  0  0  0  0  0  0  0
   -1.5700    5.0010    0.0870 O   0  0  0  0  0  0  0  0  0  0  0  0
   -2.6810    5.8770    0.2380 C   0  0  0  0  0  0  0  0  0  0  0  0
   -3.0040    3.0530    0.5270 C   0  0  0  0  0  0  0  0  0  0  0  0
   -3.0810    1.6580    0.6230 C   0  0  0  0  0  0  0  0  0  0  0  0
    0.5600    0.6750    0.0260 C   0  0  0  0  0  0  0  0  0  0  0  0
    1.3560    0.7770   -1.1280 C   0  0  0  0  0  0  0  0  0  0  0  0
    2.5290    0.0180   -1.2750 C   0  0  0  0  0  0  0  0  0  0  0  0
    2.9470   -0.8660   -0.2690 C   0  0  0  0  0  0  0  0  0  0  0  0
    2.1590   -0.9640    0.8880 C   0  0  0  0  0  0  0  0  0  0  0  0
    0.9980   -0.1960    1.0350 C   0  0  0  0  0  0  0  0  0  0  0  0
    4.2670   -1.6210   -0.3490 C   0  0  1  0  0  0  0  0  0  0  0  0
    4.3150   -2.5740   -1.4570 N   0  0  0  0  0  0  0  0  0  0  0  0
    5.4320   -0.6260   -0.3460 C   0  0  0  0  0  0  0  0  0  0  0  0
   -1.7480   -1.4760   -0.5550 C   0  0  0  0  0  0  0  0  0  0  0  0
   -1.8880   -2.8640   -0.4740 C   0  0  0  0  0  0  0  0  0  0  0  0
   -3.2630   -3.0730    2.6360 H   0  0  0  0  0  0  0  0  0  0  0  0
   -2.9940   -0.6400    2.4960 H   0  0  0  0  0  0  0  0  0  0  0  0
    0.2900    3.3490   -0.1600 H   0  0  0  0  0  0  0  0  0  0  0  0
   -2.3220    6.8990    0.0720 H   0  0  0  0  0  0  0  0  0  0  0  0
   -3.0890    5.8320    1.2530 H   0  0  0  0  0  0  0  0  0  0  0  0
   -3.4560    5.6750   -0.5090 H   0  0  0  0  0  0  0  0  0  0  0  0
   -3.9100    3.6290    0.6860 H   0  0  0  0  0  0  0  0  0  0  0  0
   -4.0500    1.2080    0.8340 H   0  0  0  0  0  0  0  0  0  0  0  0
    1.0650    1.4520   -1.9310 H   0  0  0  0  0  0  0  0  0  0  0  0
    3.1260    0.1510   -2.1730 H   0  0  0  0  0  0  0  0  0  0  0  0
    2.4500   -1.6250    1.7010 H   0  0  0  0  0  0  0  0  0  0  0  0
    0.4240   -0.2900    1.9580 H   0  0  0  0  0  0  0  0  0  0  0  0
    4.3620   -2.2440    0.5520 H   0  0  0  0  0  0  0  0  0  0  0  0
    4.1400   -2.1690   -2.3670 H   0  0  0  0  0  0  0  0  0  0  0  0
    6.4070   -1.1170   -0.3070 H   0  0  0  0  0  0  0  0  0  0  0  0
    5.3780    0.0210    0.5360 H   0  0  0  0  0  0  0  0  0  0  0  0
    5.4270    0.0020   -1.2420 H   0  0  0  0  0  0  0  0  0  0  0  0
   -1.3030   -1.0510   -1.4530 H   0  0  0  0  0  0  0  0  0  0  0  0
   -1.5400   -3.4820   -1.3000 H   0  0  0  0  0  0  0  0  0  0  0  0
    5.3540   -3.4920   -1.4690 C   0  0  0  0  0  0  0  0  0  0  0  0
    6.4520   -3.2630   -0.9720 O   0  0  0  0  0  0  0  0  0  0  0  0
    5.0890   -4.8510   -2.0060 C   0  0  0  0  0  0  0  0  0  0  0  0
    3.8390   -5.2740   -2.4590 C   0  0  0  0  0  0  0  0  0  0  0  0
    3.6630   -6.6050   -2.8680 C   0  0  0  0  0  0  0  0  0  0  0  0
    4.7200   -7.5340   -2.8210 C   0  0  0  0  0  0  0  0  0  0  0  0
    4.5450   -8.9270   -3.2910 C   0  0  0  0  0  0  0  0  0  0  0  0
    5.3690   -9.5080   -4.2950 C   0  0  0  0  0  0  0  0  0  0  0  0
    5.1540  -10.8630   -4.6320 C   0  0  0  0  0  0  0  0  0  0  0  0
    4.1540  -11.6360   -4.0280 C   0  0  0  0  0  0  0  0  0  0  0  0
    4.0840  -12.9290   -4.4700 O   0  0  0  0  0  0  0  0  0  0  0  0
    3.0850  -13.7650   -3.8970 C   0  0  0  0  0  0  0  0  0  0  0  0
    3.3380  -11.0540   -3.0660 C   0  0  0  0  0  0  0  0  0  0  0  0
    3.5370   -9.7180   -2.7010 C   0  0  0  0  0  0  0  0  0  0  0  0
    6.4220   -8.7450   -5.0140 C   0  0  0  0  0  0  0  0  0  0  0  0
    7.7600   -9.1670   -5.0210 C   0  0  0  0  0  0  0  0  0  0  0  0
    8.7590   -8.4240   -5.6710 C   0  0  0  0  0  0  0  0  0  0  0  0
    8.4510   -7.2320   -6.3420 C   0  0  0  0  0  0  0  0  0  0  0  0
    7.1140   -6.8080   -6.3400 C   0  0  0  0  0  0  0  0  0  0  0  0
    6.1180   -7.5560   -5.6970 C   0  0  0  0  0  0  0  0  0  0  0  0
    9.4890   -6.4590   -7.1470 C   0  0  1  0  0  0  0  0  0  0  0  0
   10.5730   -5.9360   -6.3270 N   0  0  0  0  0  0  0  0  0  0  0  0
    9.9700   -7.3100   -8.3270 C   0  0  0  0  0  0  0  0  0  0  0  0
    5.9580   -7.0970   -2.3320 C   0  0  0  0  0  0  0  0  0  0  0  0
    6.1440   -5.7720   -1.9420 C   0  0  0  0  0  0  0  0  0  0  0  0
    2.9920   -4.5950   -2.4830 H   0  0  0  0  0  0  0  0  0  0  0  0
    2.6850   -6.9170   -3.2340 H   0  0  0  0  0  0  0  0  0  0  0  0
    5.7700  -11.3300   -5.3990 H   0  0  0  0  0  0  0  0  0  0  0  0
    3.1790  -14.7560   -4.3520 H   0  0  0  0  0  0  0  0  0  0  0  0
    2.0800  -13.3920   -4.1200 H   0  0  0  0  0  0  0  0  0  0  0  0
    3.2330  -13.8820   -2.8180 H   0  0  0  0  0  0  0  0  0  0  0  0
    2.5430  -11.6060   -2.5760 H   0  0  0  0  0  0  0  0  0  0  0  0
    2.8970   -9.2920   -1.9290 H   0  0  0  0  0  0  0  0  0  0  0  0
    8.0400  -10.0860   -4.5090 H   0  0  0  0  0  0  0  0  0  0  0  0
    9.7780   -8.8050   -5.6670 H   0  0  0  0  0  0  0  0  0  0  0  0
    6.8230   -5.8940   -6.8550 H   0  0  0  0  0  0  0  0  0  0  0  0
    5.0930   -7.1930   -5.7250 H   0  0  0  0  0  0  0  0  0  0  0  0
    9.0030   -5.5630   -7.5640 H   0  0  0  0  0  0  0  0  0  0  0  0
   11.0580   -6.6330   -5.7750 H   0  0  0  0  0  0  0  0  0  0  0  0
   10.6400   -6.7650   -8.9950 H   0  0  0  0  0  0  0  0  0  0  0  0
    9.1220   -7.6300   -8.9390 H   0  0  0  0  0  0  0  0  0  0  0  0
   10.5120   -8.1970   -7.9860 H   0  0  0  0  0  0  0  0  0  0  0  0
    6.8020   -7.7820   -2.2640 H   0  0  0  0  0  0  0  0  0  0  0  0
    7.1210   -5.4680   -1.5680 H   0  0  0  0  0  0  0  0  0  0  0  0
   11.4400   -5.0200   -6.8960 C   0  0  0  0  0  0  0  0  0  0  0  0
   11.6820   -4.9950   -8.1080 O   0  0  0  0  0  0  0  0  0  0  0  0
   11.9960   -3.9480   -6.0450 C   0  0  0  0  0  0  0  0  0  0  0  0
   11.6620   -3.7800   -4.7000 C   0  0  0  0  0  0  0  0  0  0  0  0
   12.1680   -2.6860   -3.9880 C   0  0  0  0  0  0  0  0  0  0  0  0
   13.0080   -1.7340   -4.6110 C   0  0  0  0  0  0  0  0  0  0  0  0
   13.5760   -0.6060   -3.8440 C   0  0  0  0  0  0  0  0  0  0  0  0
   14.9780   -0.3470   -3.7850 C   0  0  0  0  0  0  0  0  0  0  0  0
   15.4120    0.7980   -3.0860 C   0  0  0  0  0  0  0  0  0  0  0  0
   14.5250    1.6660   -2.4300 C   0  0  0  0  0  0  0  0  0  0  0  0
   15.1230    2.7240   -1.8090 O   0  0  0  0  0  0  0  0  0  0  0  0
   14.2900    3.6490   -1.1210 C   0  0  0  0  0  0  0  0  0  0  0  0
   13.1670    1.3880   -2.4680 C   0  0  0  0  0  0  0  0  0  0  0  0
   12.7020    0.2740   -3.1680 C   0  0  0  0  0  0  0  0  0  0  0  0
   15.9860   -1.2350   -4.4220 C   0  0  0  0  0  0  0  0  0  0  0  0
   16.9030   -0.7430   -5.3670 C   0  0  0  0  0  0  0  0  0  0  0  0
   17.8240   -1.5860   -6.0080 C   0  0  0  0  0  0  0  0  0  0  0  0
   17.8610   -2.9580   -5.7280 C   0  0  0  0  0  0  0  0  0  0  0  0
   16.9530   -3.4530   -4.7770 C   0  0  0  0  0  0  0  0  0  0  0  0
   16.0440   -2.6060   -4.1290 C   0  0  0  0  0  0  0  0  0  0  0  0
   18.9010   -3.8960   -6.3260 C   0  0  1  0  0  0  0  0  0  0  0  0
   18.9480   -3.9130   -7.7820 N   0  0  0  0  0  0  0  0  0  0  0  0
   20.3030   -3.5350   -5.8120 C   0  0  0  0  0  0  0  0  0  0  0  0
   13.2970   -1.8970   -5.9670 C   0  0  0  0  0  0  0  0  0  0  0  0
   12.8160   -2.9940   -6.6740 C   0  0  0  0  0  0  0  0  0  0  0  0
   10.9980   -4.4760   -4.1990 H   0  0  0  0  0  0  0  0  0  0  0  0
   11.9150   -2.5780   -2.9340 H   0  0  0  0  0  0  0  0  0  0  0  0
   16.4770    1.0210   -3.0340 H   0  0  0  0  0  0  0  0  0  0  0  0
   14.9370    4.4230   -0.6960 H   0  0  0  0  0  0  0  0  0  0  0  0
   13.7620    3.1680   -0.2920 H   0  0  0  0  0  0  0  0  0  0  0  0
   13.5900    4.1420   -1.8030 H   0  0  0  0  0  0  0  0  0  0  0  0
   12.4370    2.0230   -1.9680 H   0  0  0  0  0  0  0  0  0  0  0  0
   11.6290    0.0940   -3.2060 H   0  0  0  0  0  0  0  0  0  0  0  0
   16.8960    0.3170   -5.6220 H   0  0  0  0  0  0  0  0  0  0  0  0
   18.5230   -1.1490   -6.7190 H   0  0  0  0  0  0  0  0  0  0  0  0
   16.9470   -4.5090   -4.5180 H   0  0  0  0  0  0  0  0  0  0  0  0
   15.3590   -3.0350   -3.3990 H   0  0  0  0  0  0  0  0  0  0  0  0
   18.6770   -4.9170   -5.9910 H   0  0  0  0  0  0  0  0  0  0  0  0
   19.1760   -3.0400   -8.2320 H   0  0  0  0  0  0  0  0  0  0  0  0
   21.0510   -4.2370   -6.1970 H   0  0  0  0  0  0  0  0  0  0  0  0
   20.3510   -3.5530   -4.7200 H   0  0  0  0  0  0  0  0  0  0  0  0
   20.6020   -2.5370   -6.1540 H   0  0  0  0  0  0  0  0  0  0  0  0
   13.9280   -1.1860   -6.4940 H   0  0  0  0  0  0  0  0  0  0  0  0
   13.0760   -3.1020   -7.7290 H   0  0  0  0  0  0  0  0  0  0  0  0
   -2.3610   -6.6740    2.2570 C   0  0  0  0  0  0  0  0  0  0  0  0
   -2.8530   -5.3690    1.9500 O   0  0  0  0  0  0  0  0  0  0  0  0
   -2.5160   -7.3890    1.4430 H   0  0  0  0  0  0  0  0  0  0  0  0
   -2.8720   -7.0450    3.1480 H   0  0  0  0  0  0  0  0  0  0  0  0
   -1.2940   -6.5830    2.4830 H   0  0  0  0  0  0  0  0  0  0  0  0
   22.3990   -4.7230  -10.7030 C   0  0  0  0  0  0  0  0  0  0  0  0
   21.4200   -5.5480   -9.8490 C   0  0  0  0  0  0  0  0  0  0  0  0
   20.6810   -6.5260  -10.7650 C   0  0  0  0  0  0  0  0  0  0  0  0
   22.2510   -6.2960   -8.7900 C   0  0  0  0  0  0  0  0  0  0  0  0
   20.4850   -4.5860   -9.2730 O   0  0  0  0  0  0  0  0  0  0  0  0
   19.5740   -4.9990   -8.3530 C   0  0  0  0  0  0  0  0  0  0  0  0
   19.4180   -6.1530   -7.9780 O   0  0  0  0  0  0  0  0  0  0  0  0
   23.1420   -5.3610  -11.1940 H   0  0  0  0  0  0  0  0  0  0  0  0
   21.8670   -4.1580  -11.4760 H   0  0  0  0  0  0  0  0  0  0  0  0
   22.9340   -3.9890  -10.0890 H   0  0  0  0  0  0  0  0  0  0  0  0
   20.0250   -5.9860  -11.4570 H   0  0  0  0  0  0  0  0  0  0  0  0
   20.0450   -7.2110  -10.1960 H   0  0  0  0  0  0  0  0  0  0  0  0
   21.3810   -7.1330  -11.3490 H   0  0  0  0  0  0  0  0  0  0  0  0
   22.7310   -5.5980   -8.0960 H   0  0  0  0  0  0  0  0  0  0  0  0
   21.6440   -6.9760   -8.1860 H   0  0  0  0  0  0  0  0  0  0  0  0
   23.0320   -6.9060   -9.2600 H   0  0  0  0  0  0  0  0  0  0  0  0
  1134  1  0  0  0  0
  1  2  2  0  0  0  0
  1  3  1  0  0  0  0
  3  4  2  0  0  0  0
  4 26  1  0  0  0  0
  4  5  1  0  0  0  0
  5 27  1  0  0  0  0
  5  6  2  0  0  0  0
  6  7  1  0  0  0  0
  7 14  2  0  0  0  0
  7  8  1  0  0  0  0
  8  9  2  0  0  0  0
  9 10  1  0  0  0  0
 10 13  2  0  0  0  0
 10 11  1  0  0  0  0
 11 12  1  0  0  0  0
 12 30  1  0  0  0  0
 13 14  1  0  0  0  0
 13 32  1  0  0  0  0
 14 33  1  0  0  0  0
  8 15  1  0  0  0  0
 15 20  1  0  0  0  0
 15 16  2  0  0  0  0
 16 17  1  0  0  0  0
 17 18  2  0  0  0  0
 18 19  1  0  0  0  0
 19 20  2  0  0  0  0
 19 36  1  0  0  0  0
 20 37  1  0  0  0  0
 21 23  1  0  0  0  0
 18 21  1  0  0  0  0
 21 38  1  0  0  0  0
 21 22  1  0  0  0  0
 23 40  1  0  0  0  0
 23 41  1  0  0  0  0
 24 25  2  0  0  0  0
  6 24  1  0  0  0  0
  3 25  1  0  0  0  0
  9 28  1  0  0  0  0
 12 29  1  0  0  0  0
 12 31  1  0  0  0  0
 16 34  1  0  0  0  0
 17 35  1  0  0  0  0
 22 39  1  0  0  0  0
 23 42  1  0  0  0  0
 24 43  1  0  0  0  0
 25 44  1  0  0  0  0
 22 45  1  0  0  0  0
 45 46  2  0  0  0  0
 47 69  1  0  0  0  0
 45 47  1  0  0  0  0
 47 48  2  0  0  0  0
 49 50  2  0  0  0  0
 48 49  1  0  0  0  0
 50 68  1  0  0  0  0
 50 51  1  0  0  0  0
 51 58  2  0  0  0  0
 51 52  1  0  0  0  0
 52 53  2  0  0  0  0
 53 54  1  0  0  0  0
 54 57  2  0  0  0  0
 54 55  1  0  0  0  0
 55 56  1  0  0  0  0
 56 75  1  0  0  0  0
 57 58  1  0  0  0  0
 57 76  1  0  0  0  0
 58 77  1  0  0  0  0
 52 59  1  0  0  0  0
 59 60  2  0  0  0  0
 60 78  1  0  0  0  0
 61 79  1  0  0  0  0
 60 61  1  0  0  0  0
 62 63  1  0  0  0  0
 61 62  2  0  0  0  0
 63 64  2  0  0  0  0
 59 64  1  0  0  0  0
 65 82  1  0  0  0  0
 62 65  1  0  0  0  0
 65 66  1  0  0  0  0
 66 83  1  0  0  0  0
 67 86  1  0  0  0  0
 65 67  1  0  0  0  0
 68 87  1  0  0  0  0
 68 69  2  0  0  0  0
 69 88  1  0  0  0  0
 48 70  1  0  0  0  0
 49 71  1  0  0  0  0
 53 72  1  0  0  0  0
 56 73  1  0  0  0  0
 56 74  1  0  0  0  0
 63 80  1  0  0  0  0
 64 81  1  0  0  0  0
 67 84  1  0  0  0  0
 67 85  1  0  0  0  0
 66 89  1  0  0  0  0
 89 91  1  0  0  0  0
 89 90  2  0  0  0  0
 91 92  2  0  0  0  0
 92114  1  0  0  0  0
 92 93  1  0  0  0  0
 93115  1  0  0  0  0
 93 94  2  0  0  0  0
 94 95  1  0  0  0  0
 95 96  1  0  0  0  0
 95102  2  0  0  0  0
 96 97  2  0  0  0  0
 97116  1  0  0  0  0
 97 98  1  0  0  0  0
 98 99  1  0  0  0  0
 99100  1  0  0  0  0
100117  1  0  0  0  0
100118  1  0  0  0  0
 98101  2  0  0  0  0
101120  1  0  0  0  0
101102  1  0  0  0  0
103108  1  0  0  0  0
 96103  1  0  0  0  0
103104  2  0  0  0  0
105106  2  0  0  0  0
104105  1  0  0  0  0
106107  1  0  0  0  0
107124  1  0  0  0  0
107108  2  0  0  0  0
108125  1  0  0  0  0
109126  1  0  0  0  0
109111  1  0  0  0  0
106109  1  0  0  0  0
109110  1  0  0  0  0
111129  1  0  0  0  0
 94112  1  0  0  0  0
 91113  1  0  0  0  0
112113  2  0  0  0  0
100119  1  0  0  0  0
102121  1  0  0  0  0
104122  1  0  0  0  0
105123  1  0  0  0  0
110127  1  0  0  0  0
111128  1  0  0  0  0
111130  1  0  0  0  0
112131  1  0  0  0  0
113132  1  0  0  0  0
133137  1  0  0  0  0
133136  1  0  0  0  0
133134  1  0  0  0  0
133135  1  0  0  0  0
138147  1  0  0  0  0
138139  1  0  0  0  0
139142  1  0  0  0  0
139141  1  0  0  0  0
140149  1  0  0  0  0
139140  1  0  0  0  0
141152  1  0  0  0  0
141151  1  0  0  0  0
142143  1  0  0  0  0
143144  2  0  0  0  0
110143  1  0  0  0  0
138145  1  0  0  0  0
138146  1  0  0  0  0
140148  1  0  0  0  0
140150  1  0  0  0  0
141153  1  0  0  0  0
M  END
> <atom.dprop.PartialCharge>
0.645920 -0.539620 -0.135840 -0.077070 -0.129930 -0.000580 -0.080060 0.008500 -0.143800 0.129070 -0.324990 0.112980 -0.203740 -0.082350 -0.042270 -0.110290 -0.121640 -0.094070 -0.121640 -0.110290 0.151090 -0.570860 -0.110200 -0.129930 -0.077070 0.153140 0.144050 0.158540 0.045830 0.045830 0.045830 0.141250 0.141040 0.138990 0.135140 0.135140 0.138990 0.086890 0.311350 0.045120 0.045120 0.045120 0.144050 0.153140 0.674760 -0.609570 -0.141530 -0.093080 -0.125310 -0.009520 -0.077320 0.008460 -0.143690 0.128070 -0.325920 0.112800 -0.203030 -0.082770 -0.039280 -0.110690 -0.122320 -0.090600 -0.122320 -0.110690 0.149020 -0.574280 -0.109550 -0.125310 -0.093080 0.146710 0.142180 0.157370 0.045920 0.045920 0.045920 0.141080 0.140040 0.137400 0.133990 0.133990 0.137400 0.089340 0.309180 0.044160 0.044160 0.044160 0.142180 0.146710 0.677320 -0.605080 -0.140050 -0.088770 -0.124360 -0.014340 -0.071760 0.011960 -0.146610 0.124170 -0.326250 0.113240 -0.206570 -0.086540 -0.044760 -0.109580 -0.118410 -0.098910 -0.118410 -0.109580 0.153130 -0.546130 -0.098700 -0.124360 -0.088770 0.148470 0.140860 0.156650 0.044920 0.044920 0.044920 0.138840 0.138880 0.133180 0.135140 0.135140 0.133180 0.089940 0.319860 0.045590 0.045590 0.045590 0.140860 0.148470 0.124030 -0.430480 0.050850 0.050850 0.050850 -0.115420 0.188910 -0.115420 -0.115420 -0.443170 0.747150 -0.588840 0.051810 0.051810 0.051810 0.051810 0.051810 0.051810 0.051810 0.051810 0.051810

$$$$
