pop_trimer.pdb
 OpenBabel11242516093D

153161  0  0  1  0  0  0  0  0999 V2000
   -2.3280   -4.9360    0.7630 C   0  0  0  0  0  0  0  0  0  0  0  0
   -2.0410   -5.6610   -0.1750 O   0  0  0  0  0  0  0  0  0  0  0  0
   -2.3640   -3.4530    0.6710 C   0  0  0  0  0  0  0  0  0  0  0  0
   -2.7990   -2.6390    1.7230 C   0  0  0  0  0  0  0  0  0  0  0  0
   -2.6890   -1.2470    1.6230 C   0  0  0  0  0  0  0  0  0  0  0  0
   -2.1560   -0.6440    0.4710 C   0  0  0  0  0  0  0  0  0  0  0  0
   -1.9650    0.8200    0.3920 C   0  0  0  0  0  0  0  0  0  0  0  0
   -0.7010    1.4220    0.1470 C   0  0  0  0  0  0  0  0  0  0  0  0
   -0.6410    2.8310    0.0610 C   0  0  0  0  0  0  0  0  0  0  0  0
   -1.7750    3.6390    0.2120 C   0  0  0  0  0  0  0  0  0  0  0  0
   -1.5440    4.9820    0.0950 O   0  0  0  0  0  0  0  0  0  0  0  0
   -2.6650    5.8460    0.2370 C   0  0  0  0  0  0  0  0  0  0  0  0
   -3.0030    3.0430    0.4600 C   0  0  0  0  0  0  0  0  0  0  0  0
   -3.0960    1.6490    0.5490 C   0  0  0  0  0  0  0  0  0  0  0  0
    0.5560    0.6450   -0.0040 C   0  0  0  0  0  0  0  0  0  0  0  0
    1.3380    0.7390   -1.1690 C   0  0  0  0  0  0  0  0  0  0  0  0
    2.5310    0.0120   -1.3110 C   0  0  0  0  0  0  0  0  0  0  0  0
    2.9870   -0.8220   -0.2820 C   0  0  0  0  0  0  0  0  0  0  0  0
    2.2010   -0.9360    0.8740 C   0  0  0  0  0  0  0  0  0  0  0  0
    1.0130   -0.2070    1.0130 C   0  0  0  0  0  0  0  0  0  0  0  0
    4.3380   -1.5190   -0.3410 C   0  0  1  0  0  0  0  0  0  0  0  0
    4.3920   -2.5380   -1.3810 N   0  0  0  0  0  0  0  0  0  0  0  0
    5.4700   -0.4920   -0.4300 C   0  0  0  0  0  0  0  0  0  0  0  0
   -1.7890   -1.4730   -0.6010 C   0  0  0  0  0  0  0  0  0  0  0  0
   -1.8830   -2.8610   -0.5010 C   0  0  0  0  0  0  0  0  0  0  0  0
   -3.2010   -3.0720    2.6360 H   0  0  0  0  0  0  0  0  0  0  0  0
   -2.9940   -0.6350    2.4710 H   0  0  0  0  0  0  0  0  0  0  0  0
    0.3170    3.3180   -0.1160 H   0  0  0  0  0  0  0  0  0  0  0  0
   -2.3140    6.8750    0.1170 H   0  0  0  0  0  0  0  0  0  0  0  0
   -3.1080    5.7600    1.2350 H   0  0  0  0  0  0  0  0  0  0  0  0
   -3.4120    5.6570   -0.5430 H   0  0  0  0  0  0  0  0  0  0  0  0
   -3.9120    3.6220    0.5840 H   0  0  0  0  0  0  0  0  0  0  0  0
   -4.0730    1.2070    0.7260 H   0  0  0  0  0  0  0  0  0  0  0  0
    1.0260    1.3940   -1.9800 H   0  0  0  0  0  0  0  0  0  0  0  0
    3.1160    0.1310   -2.2220 H   0  0  0  0  0  0  0  0  0  0  0  0
    2.5210   -1.5730    1.6960 H   0  0  0  0  0  0  0  0  0  0  0  0
    0.4480   -0.3050    1.9370 H   0  0  0  0  0  0  0  0  0  0  0  0
    4.4760   -2.0630    0.6060 H   0  0  0  0  0  0  0  0  0  0  0  0
    3.5980   -2.6350   -1.9950 H   0  0  0  0  0  0  0  0  0  0  0  0
    6.4540   -0.9630   -0.3490 H   0  0  0  0  0  0  0  0  0  0  0  0
    5.3910    0.2340    0.3880 H   0  0  0  0  0  0  0  0  0  0  0  0
    5.4500    0.0590   -1.3750 H   0  0  0  0  0  0  0  0  0  0  0  0
   -1.3890   -1.0370   -1.5140 H   0  0  0  0  0  0  0  0  0  0  0  0
   -1.5490   -3.4780   -1.3340 H   0  0  0  0  0  0  0  0  0  0  0  0
    5.3410   -3.5400   -1.2770 C   0  0  0  0  0  0  0  0  0  0  0  0
    6.3520   -3.4130   -0.5890 O   0  0  0  0  0  0  0  0  0  0  0  0
    5.0880   -4.8560   -1.9330 C   0  0  0  0  0  0  0  0  0  0  0  0
    3.8410   -5.2600   -2.4210 C   0  0  0  0  0  0  0  0  0  0  0  0
    3.6460   -6.5880   -2.8440 C   0  0  0  0  0  0  0  0  0  0  0  0
    4.6830   -7.5360   -2.7810 C   0  0  0  0  0  0  0  0  0  0  0  0
    4.4990   -8.9360   -3.2340 C   0  0  0  0  0  0  0  0  0  0  0  0
    5.3360   -9.5340   -4.2160 C   0  0  0  0  0  0  0  0  0  0  0  0
    5.1060  -10.8820   -4.5690 C   0  0  0  0  0  0  0  0  0  0  0  0
    4.0970  -11.6450   -3.9780 C   0  0  0  0  0  0  0  0  0  0  0  0
    4.0160  -12.9310   -4.4350 O   0  0  0  0  0  0  0  0  0  0  0  0
    3.0320  -13.7720   -3.8480 C   0  0  0  0  0  0  0  0  0  0  0  0
    3.2870  -11.0600   -3.0100 C   0  0  0  0  0  0  0  0  0  0  0  0
    3.4850   -9.7230   -2.6480 C   0  0  0  0  0  0  0  0  0  0  0  0
    6.4310   -8.7970   -4.8960 C   0  0  0  0  0  0  0  0  0  0  0  0
    7.7660   -9.2300   -4.8240 C   0  0  0  0  0  0  0  0  0  0  0  0
    8.8000   -8.5200   -5.4580 C   0  0  0  0  0  0  0  0  0  0  0  0
    8.5200   -7.3580   -6.1880 C   0  0  0  0  0  0  0  0  0  0  0  0
    7.1910   -6.9090   -6.2310 C   0  0  0  0  0  0  0  0  0  0  0  0
    6.1650   -7.6210   -5.6080 C   0  0  0  0  0  0  0  0  0  0  0  0
    9.5390   -6.6550   -7.0680 C   0  0  1  0  0  0  0  0  0  0  0  0
   10.6870   -6.0910   -6.3630 N   0  0  0  0  0  0  0  0  0  0  0  0
    9.9690   -7.5790   -8.2130 C   0  0  0  0  0  0  0  0  0  0  0  0
    5.9260   -7.1090   -2.2940 C   0  0  0  0  0  0  0  0  0  0  0  0
    6.1340   -5.7880   -1.9000 C   0  0  0  0  0  0  0  0  0  0  0  0
    2.9940   -4.5840   -2.4490 H   0  0  0  0  0  0  0  0  0  0  0  0
    2.6650   -6.8790   -3.2190 H   0  0  0  0  0  0  0  0  0  0  0  0
    5.7230  -11.3460   -5.3380 H   0  0  0  0  0  0  0  0  0  0  0  0
    3.1250  -14.7620   -4.3060 H   0  0  0  0  0  0  0  0  0  0  0  0
    2.0220  -13.4030   -4.0540 H   0  0  0  0  0  0  0  0  0  0  0  0
    3.2000  -13.8880   -2.7720 H   0  0  0  0  0  0  0  0  0  0  0  0
    2.4980  -11.6170   -2.5130 H   0  0  0  0  0  0  0  0  0  0  0  0
    2.8450   -9.2960   -1.8760 H   0  0  0  0  0  0  0  0  0  0  0  0
    8.0110  -10.1380   -4.2730 H   0  0  0  0  0  0  0  0  0  0  0  0
    9.8140   -8.9110   -5.4070 H   0  0  0  0  0  0  0  0  0  0  0  0
    6.9320   -6.0070   -6.7850 H   0  0  0  0  0  0  0  0  0  0  0  0
    5.1470   -7.2460   -5.6860 H   0  0  0  0  0  0  0  0  0  0  0  0
    9.0300   -5.8010   -7.5320 H   0  0  0  0  0  0  0  0  0  0  0  0
   10.9000   -6.4060   -5.4310 H   0  0  0  0  0  0  0  0  0  0  0  0
   10.6930   -7.0920   -8.8740 H   0  0  0  0  0  0  0  0  0  0  0  0
    9.0990   -7.8570   -8.8200 H   0  0  0  0  0  0  0  0  0  0  0  0
   10.4290   -8.5030   -7.8470 H   0  0  0  0  0  0  0  0  0  0  0  0
    6.7570   -7.8090   -2.2220 H   0  0  0  0  0  0  0  0  0  0  0  0
    7.1170   -5.5010   -1.5330 H   0  0  0  0  0  0  0  0  0  0  0  0
   11.3580   -5.0240   -6.9580 C   0  0  0  0  0  0  0  0  0  0  0  0
   11.0260   -4.5850   -8.0520 O   0  0  0  0  0  0  0  0  0  0  0  0
   12.4900   -4.3670   -6.2420 C   0  0  0  0  0  0  0  0  0  0  0  0
   13.1510   -4.9220   -5.1480 C   0  0  0  0  0  0  0  0  0  0  0  0
   14.2190   -4.2320   -4.5530 C   0  0  0  0  0  0  0  0  0  0  0  0
   14.6600   -2.9870   -5.0390 C   0  0  0  0  0  0  0  0  0  0  0  0
   15.8160   -2.3120   -4.4090 C   0  0  0  0  0  0  0  0  0  0  0  0
   17.0380   -2.0600   -5.0870 C   0  0  0  0  0  0  0  0  0  0  0  0
   18.0950   -1.4530   -4.3650 C   0  0  0  0  0  0  0  0  0  0  0  0
   17.9690   -1.1080   -3.0140 C   0  0  0  0  0  0  0  0  0  0  0  0
   19.0810   -0.5460   -2.4460 O   0  0  0  0  0  0  0  0  0  0  0  0
   18.9820   -0.1660   -1.0760 C   0  0  0  0  0  0  0  0  0  0  0  0
   16.7690   -1.3570   -2.3610 C   0  0  0  0  0  0  0  0  0  0  0  0
   15.7060   -1.9430   -3.0530 C   0  0  0  0  0  0  0  0  0  0  0  0
   17.2570   -2.4500   -6.4990 C   0  0  0  0  0  0  0  0  0  0  0  0
   17.5510   -1.4980   -7.4880 C   0  0  0  0  0  0  0  0  0  0  0  0
   17.7220   -1.8740   -8.8300 C   0  0  0  0  0  0  0  0  0  0  0  0
   17.6200   -3.2180   -9.2200 C   0  0  0  0  0  0  0  0  0  0  0  0
   17.3210   -4.1690   -8.2340 C   0  0  0  0  0  0  0  0  0  0  0  0
   17.1560   -3.7920   -6.8970 C   0  0  0  0  0  0  0  0  0  0  0  0
   17.9480   -3.6800  -10.6320 C   0  0  1  0  0  0  0  0  0  0  0  0
   17.0460   -3.1490  -11.6370 N   0  0  0  0  0  0  0  0  0  0  0  0
   19.4210   -3.3660  -10.9320 C   0  0  0  0  0  0  0  0  0  0  0  0
   13.9890   -2.4360   -6.1380 C   0  0  0  0  0  0  0  0  0  0  0  0
   12.9230   -3.1230   -6.7330 C   0  0  0  0  0  0  0  0  0  0  0  0
   12.8830   -5.8950   -4.7520 H   0  0  0  0  0  0  0  0  0  0  0  0
   14.7350   -4.6860   -3.7070 H   0  0  0  0  0  0  0  0  0  0  0  0
   19.0480   -1.2690   -4.8590 H   0  0  0  0  0  0  0  0  0  0  0  0
   19.9260    0.3060   -0.7870 H   0  0  0  0  0  0  0  0  0  0  0  0
   18.8370   -1.0410   -0.4340 H   0  0  0  0  0  0  0  0  0  0  0  0
   18.1860    0.5710   -0.9240 H   0  0  0  0  0  0  0  0  0  0  0  0
   16.6210   -1.1190   -1.3130 H   0  0  0  0  0  0  0  0  0  0  0  0
   14.7740   -2.1210   -2.5190 H   0  0  0  0  0  0  0  0  0  0  0  0
   17.6510   -0.4480   -7.2200 H   0  0  0  0  0  0  0  0  0  0  0  0
   17.9700   -1.1090   -9.5630 H   0  0  0  0  0  0  0  0  0  0  0  0
   17.2400   -5.2240   -8.4890 H   0  0  0  0  0  0  0  0  0  0  0  0
   16.9450   -4.5630   -6.1590 H   0  0  0  0  0  0  0  0  0  0  0  0
   17.8310   -4.7710  -10.6740 H   0  0  0  0  0  0  0  0  0  0  0  0
   16.2230   -2.6270  -11.3660 H   0  0  0  0  0  0  0  0  0  0  0  0
   19.7470   -3.7990  -11.8810 H   0  0  0  0  0  0  0  0  0  0  0  0
   20.0720   -3.7750  -10.1490 H   0  0  0  0  0  0  0  0  0  0  0  0
   19.6010   -2.2870  -10.9900 H   0  0  0  0  0  0  0  0  0  0  0  0
   14.2980   -1.4780   -6.5520 H   0  0  0  0  0  0  0  0  0  0  0  0
   12.4360   -2.6770   -7.5990 H   0  0  0  0  0  0  0  0  0  0  0  0
   -2.3690   -6.7290    2.2740 C   0  0  0  0  0  0  0  0  0  0  0  0
   -2.5670   -5.3340    2.0380 O   0  0  0  0  0  0  0  0  0  0  0  0
   -2.6920   -7.3470    1.4300 H   0  0  0  0  0  0  0  0  0  0  0  0
   -2.9600   -7.0110    3.1490 H   0  0  0  0  0  0  0  0  0  0  0  0
   -1.3120   -6.9070    2.4940 H   0  0  0  0  0  0  0  0  0  0  0  0
   14.3960   -3.2120  -15.4160 C   0  0  0  0  0  0  0  0  0  0  0  0
   15.7680   -3.7450  -14.9720 C   0  0  0  0  0  0  0  0  0  0  0  0
   15.7190   -5.2800  -15.0340 C   0  0  0  0  0  0  0  0  0  0  0  0
   16.8370   -3.1830  -15.9190 C   0  0  0  0  0  0  0  0  0  0  0  0
   15.9660   -3.2530  -13.6120 O   0  0  0  0  0  0  0  0  0  0  0  0
   17.0420   -3.6770  -12.9050 C   0  0  0  0  0  0  0  0  0  0  0  0
   17.8880   -4.4580  -13.3190 O   0  0  0  0  0  0  0  0  0  0  0  0
   14.1410   -3.5480  -16.4280 H   0  0  0  0  0  0  0  0  0  0  0  0
   13.6070   -3.5510  -14.7350 H   0  0  0  0  0  0  0  0  0  0  0  0
   14.3730   -2.1170  -15.4030 H   0  0  0  0  0  0  0  0  0  0  0  0
   15.0440   -5.6790  -14.2690 H   0  0  0  0  0  0  0  0  0  0  0  0
   16.6990   -5.7340  -14.8630 H   0  0  0  0  0  0  0  0  0  0  0  0
   15.3830   -5.6290  -16.0160 H   0  0  0  0  0  0  0  0  0  0  0  0
   16.8860   -2.0910  -15.8500 H   0  0  0  0  0  0  0  0  0  0  0  0
   17.8360   -3.5570  -15.6740 H   0  0  0  0  0  0  0  0  0  0  0  0
   16.6300   -3.4550  -16.9600 H   0  0  0  0  0  0  0  0  0  0  0  0
  1134  1  0  0  0  0
  2  1  2  0  0  0  0
  3  1  1  0  0  0  0
  3  4  1  0  0  0  0
  4 26  1  0  0  0  0
  5  4  2  0  0  0  0
  5 27  1  0  0  0  0
  6  5  1  0  0  0  0
  7  6  1  0  0  0  0
  7 14  1  0  0  0  0
  8  7  2  0  0  0  0
  9  8  1  0  0  0  0
  9 10  2  0  0  0  0
 10 13  1  0  0  0  0
 11 10  1  0  0  0  0
 11 12  1  0  0  0  0
 12 30  1  0  0  0  0
 13 14  2  0  0  0  0
 13 32  1  0  0  0  0
 14 33  1  0  0  0  0
 15  8  1  0  0  0  0
 15 20  1  0  0  0  0
 16 15  2  0  0  0  0
 17 16  1  0  0  0  0
 17 18  2  0  0  0  0
 18 19  1  0  0  0  0
 19 20  2  0  0  0  0
 19 36  1  0  0  0  0
 20 37  1  0  0  0  0
 21 18  1  0  0  0  0
 21 38  1  1  0  0  0
 22 45  1  0  0  0  0
 22 21  1  0  0  0  0
 23 40  1  0  0  0  0
 23 21  1  0  0  0  0
 23 41  1  0  0  0  0
 24 25  1  0  0  0  0
 24  6  2  0  0  0  0
 25  3  2  0  0  0  0
 28  9  1  0  0  0  0
 29 12  1  0  0  0  0
 31 12  1  0  0  0  0
 34 16  1  0  0  0  0
 35 17  1  0  0  0  0
 39 22  1  0  0  0  0
 42 23  1  0  0  0  0
 43 24  1  0  0  0  0
 44 25  1  0  0  0  0
 45 46  2  0  0  0  0
 47 69  1  0  0  0  0
 47 45  1  0  0  0  0
 48 47  2  0  0  0  0
 49 50  2  0  0  0  0
 49 48  1  0  0  0  0
 50 68  1  0  0  0  0
 51 50  1  0  0  0  0
 51 58  1  0  0  0  0
 52 51  2  0  0  0  0
 53 52  1  0  0  0  0
 53 54  2  0  0  0  0
 54 57  1  0  0  0  0
 55 54  1  0  0  0  0
 55 56  1  0  0  0  0
 56 75  1  0  0  0  0
 57 58  2  0  0  0  0
 57 76  1  0  0  0  0
 58 77  1  0  0  0  0
 59 60  1  0  0  0  0
 59 52  1  0  0  0  0
 60 78  1  0  0  0  0
 61 79  1  0  0  0  0
 61 60  2  0  0  0  0
 62 61  1  0  0  0  0
 63 62  2  0  0  0  0
 63 64  1  0  0  0  0
 64 59  2  0  0  0  0
 65 82  1  6  0  0  0
 65 66  1  0  0  0  0
 65 62  1  0  0  0  0
 66 83  1  0  0  0  0
 67 86  1  0  0  0  0
 67 65  1  0  0  0  0
 68 87  1  0  0  0  0
 68 69  2  0  0  0  0
 69 88  1  0  0  0  0
 70 48  1  0  0  0  0
 71 49  1  0  0  0  0
 72 53  1  0  0  0  0
 73 56  1  0  0  0  0
 74 56  1  0  0  0  0
 80 63  1  0  0  0  0
 81 64  1  0  0  0  0
 84 67  1  0  0  0  0
 85 67  1  0  0  0  0
 89 66  1  0  0  0  0
 89 91  1  0  0  0  0
 90 89  2  0  0  0  0
 91 92  1  0  0  0  0
 92114  1  0  0  0  0
 92 93  2  0  0  0  0
 93115  1  0  0  0  0
 94 93  1  0  0  0  0
 94 95  1  0  0  0  0
 95102  1  0  0  0  0
 96 95  2  0  0  0  0
 96 97  1  0  0  0  0
 97 98  2  0  0  0  0
 98 99  1  0  0  0  0
 98101  1  0  0  0  0
 99100  1  0  0  0  0
100119  1  0  0  0  0
100117  1  0  0  0  0
100118  1  0  0  0  0
101120  1  0  0  0  0
102121  1  0  0  0  0
102101  2  0  0  0  0
103 96  1  0  0  0  0
104122  1  0  0  0  0
104103  2  0  0  0  0
105104  1  0  0  0  0
106105  2  0  0  0  0
106107  1  0  0  0  0
107108  2  0  0  0  0
108103  1  0  0  0  0
108125  1  0  0  0  0
109126  1  6  0  0  0
109106  1  0  0  0  0
110127  1  0  0  0  0
110109  1  0  0  0  0
111109  1  0  0  0  0
111129  1  0  0  0  0
112 94  2  0  0  0  0
113 91  2  0  0  0  0
113112  1  0  0  0  0
116 97  1  0  0  0  0
123105  1  0  0  0  0
124107  1  0  0  0  0
128111  1  0  0  0  0
130111  1  0  0  0  0
131112  1  0  0  0  0
132113  1  0  0  0  0
133137  1  0  0  0  0
133136  1  0  0  0  0
134133  1  0  0  0  0
135133  1  0  0  0  0
138147  1  0  0  0  0
138139  1  0  0  0  0
138146  1  0  0  0  0
139142  1  0  0  0  0
140139  1  0  0  0  0
140149  1  0  0  0  0
140148  1  0  0  0  0
141151  1  0  0  0  0
141152  1  0  0  0  0
141139  1  0  0  0  0
142143  1  0  0  0  0
143110  1  0  0  0  0
144143  2  0  0  0  0
145138  1  0  0  0  0
150140  1  0  0  0  0
153141  1  0  0  0  0
M  END
