pop_trimer.pdb
  -OEChem-08262511093D

153161  0     1  0  0  0  0  0999 V2000
   -2.4540   -4.9320    0.7190 C   0  0  0  0  0  0  0  0  0  0  0  0
   -2.0770   -5.6380   -0.2030 O   0  0  0  0  0  0  0  0  0  0  0  0
   -2.4400   -3.4470    0.6630 C   0  0  0  0  0  0  0  0  0  0  0  0
   -2.8470   -2.6370    1.7270 C   0  0  0  0  0  0  0  0  0  0  0  0
   -2.6970   -1.2450    1.6460 C   0  0  0  0  0  0  0  0  0  0  0  0
   -2.1430   -0.6390    0.5040 C   0  0  0  0  0  0  0  0  0  0  0  0
   -1.9530    0.8270    0.4320 C   0  0  0  0  0  0  0  0  0  0  0  0
   -0.6970    1.4380    0.1680 C   0  0  0  0  0  0  0  0  0  0  0  0
   -0.6480    2.8460    0.0600 C   0  0  0  0  0  0  0  0  0  0  0  0
   -1.7820    3.6500    0.2220 C   0  0  0  0  0  0  0  0  0  0  0  0
   -1.5640    4.9920    0.0730 O   0  0  0  0  0  0  0  0  0  0  0  0
   -2.6830    5.8560    0.2350 C   0  0  0  0  0  0  0  0  0  0  0  0
   -3.0000    3.0490    0.5100 C   0  0  0  0  0  0  0  0  0  0  0  0
   -3.0810    1.6560    0.6100 C   0  0  0  0  0  0  0  0  0  0  0  0
    0.5630    0.6660    0.0220 C   0  0  0  0  0  0  0  0  0  0  0  0
    1.3550    0.7700   -1.1330 C   0  0  0  0  0  0  0  0  0  0  0  0
    2.5340    0.0230   -1.2800 C   0  0  0  0  0  0  0  0  0  0  0  0
    2.9630   -0.8510   -0.2710 C   0  0  0  0  0  0  0  0  0  0  0  0
    2.1730   -0.9600    0.8830 C   0  0  0  0  0  0  0  0  0  0  0  0
    1.0030   -0.2050    1.0300 C   0  0  0  0  0  0  0  0  0  0  0  0
    4.2890   -1.5950   -0.3530 C   0  0  1  0  0  0  0  0  0  0  0  0
    4.3130   -2.5680   -1.4400 N   0  0  0  0  0  0  0  0  0  0  0  0
    5.4510   -0.5980   -0.3760 C   0  0  0  0  0  0  0  0  0  0  0  0
   -1.7670   -1.4680   -0.5660 C   0  0  0  0  0  0  0  0  0  0  0  0
   -1.9040   -2.8550   -0.4850 C   0  0  0  0  0  0  0  0  0  0  0  0
   -3.2550   -3.0700    2.6370 H   0  0  0  0  0  0  0  0  0  0  0  0
   -2.9860   -0.6370    2.5000 H   0  0  0  0  0  0  0  0  0  0  0  0
    0.3030    3.3380   -0.1470 H   0  0  0  0  0  0  0  0  0  0  0  0
   -2.3370    6.8820    0.0730 H   0  0  0  0  0  0  0  0  0  0  0  0
   -3.0830    5.7970    1.2530 H   0  0  0  0  0  0  0  0  0  0  0  0
   -3.4610    5.6490   -0.5080 H   0  0  0  0  0  0  0  0  0  0  0  0
   -3.9070    3.6260    0.6550 H   0  0  0  0  0  0  0  0  0  0  0  0
   -4.0540    1.2110    0.8170 H   0  0  0  0  0  0  0  0  0  0  0  0
    1.0560    1.4410   -1.9370 H   0  0  0  0  0  0  0  0  0  0  0  0
    3.1250    0.1540   -2.1830 H   0  0  0  0  0  0  0  0  0  0  0  0
    2.4700   -1.6210    1.6950 H   0  0  0  0  0  0  0  0  0  0  0  0
    0.4290   -0.3070    1.9500 H   0  0  0  0  0  0  0  0  0  0  0  0
    4.3990   -2.1980    0.5600 H   0  0  0  0  0  0  0  0  0  0  0  0
    4.0430   -2.2270   -2.3530 H   0  0  0  0  0  0  0  0  0  0  0  0
    6.4270   -1.0910   -0.3300 H   0  0  0  0  0  0  0  0  0  0  0  0
    5.4010    0.0650    0.4950 H   0  0  0  0  0  0  0  0  0  0  0  0
    5.4440    0.0140   -1.2800 H   0  0  0  0  0  0  0  0  0  0  0  0
   -1.3310   -1.0390   -1.4650 H   0  0  0  0  0  0  0  0  0  0  0  0
   -1.5620   -3.4710   -1.3140 H   0  0  0  0  0  0  0  0  0  0  0  0
    5.3440   -3.4890   -1.4620 C   0  0  0  0  0  0  0  0  0  0  0  0
    6.4410   -3.2760   -0.9600 O   0  0  0  0  0  0  0  0  0  0  0  0
    5.0710   -4.8430   -2.0180 C   0  0  0  0  0  0  0  0  0  0  0  0
    3.8170   -5.2670   -2.4640 C   0  0  0  0  0  0  0  0  0  0  0  0
    3.6380   -6.5990   -2.8680 C   0  0  0  0  0  0  0  0  0  0  0  0
    4.6970   -7.5260   -2.8260 C   0  0  0  0  0  0  0  0  0  0  0  0
    4.5250   -8.9180   -3.2910 C   0  0  0  0  0  0  0  0  0  0  0  0
    5.3500   -9.4990   -4.2970 C   0  0  0  0  0  0  0  0  0  0  0  0
    5.1350  -10.8570   -4.6430 C   0  0  0  0  0  0  0  0  0  0  0  0
    4.1380  -11.6280   -4.0270 C   0  0  0  0  0  0  0  0  0  0  0  0
    4.0720  -12.9220   -4.4760 O   0  0  0  0  0  0  0  0  0  0  0  0
    3.0780  -13.7560   -3.8890 C   0  0  0  0  0  0  0  0  0  0  0  0
    3.3330  -11.0510   -3.0580 C   0  0  0  0  0  0  0  0  0  0  0  0
    3.5280   -9.7180   -2.6940 C   0  0  0  0  0  0  0  0  0  0  0  0
    6.4060   -8.7320   -5.0120 C   0  0  0  0  0  0  0  0  0  0  0  0
    7.7460   -9.1550   -5.0080 C   0  0  0  0  0  0  0  0  0  0  0  0
    8.7490   -8.4170   -5.6600 C   0  0  0  0  0  0  0  0  0  0  0  0
    8.4460   -7.2300   -6.3410 C   0  0  0  0  0  0  0  0  0  0  0  0
    7.1110   -6.7970   -6.3380 C   0  0  0  0  0  0  0  0  0  0  0  0
    6.1110   -7.5430   -5.6970 C   0  0  0  0  0  0  0  0  0  0  0  0
    9.4860   -6.4730   -7.1570 C   0  0  1  0  0  0  0  0  0  0  0  0
   10.5640   -5.9320   -6.3320 N   0  0  0  0  0  0  0  0  0  0  0  0
    9.9670   -7.3420   -8.3250 C   0  0  0  0  0  0  0  0  0  0  0  0
    5.9370   -7.0890   -2.3420 C   0  0  0  0  0  0  0  0  0  0  0  0
    6.1260   -5.7650   -1.9600 C   0  0  0  0  0  0  0  0  0  0  0  0
    2.9680   -4.5900   -2.4800 H   0  0  0  0  0  0  0  0  0  0  0  0
    2.6590   -6.9140   -3.2240 H   0  0  0  0  0  0  0  0  0  0  0  0
    5.7500  -11.3150   -5.4030 H   0  0  0  0  0  0  0  0  0  0  0  0
    3.1640  -14.7430   -4.3510 H   0  0  0  0  0  0  0  0  0  0  0  0
    2.0720  -13.3780   -4.0950 H   0  0  0  0  0  0  0  0  0  0  0  0
    3.2450  -13.8750   -2.8140 H   0  0  0  0  0  0  0  0  0  0  0  0
    2.5500  -11.6080   -2.5540 H   0  0  0  0  0  0  0  0  0  0  0  0
    2.8970   -9.2920   -1.9070 H   0  0  0  0  0  0  0  0  0  0  0  0
    8.0250  -10.0700   -4.4890 H   0  0  0  0  0  0  0  0  0  0  0  0
    9.7680   -8.7980   -5.6480 H   0  0  0  0  0  0  0  0  0  0  0  0
    6.8270   -5.8820   -6.8530 H   0  0  0  0  0  0  0  0  0  0  0  0
    5.0870   -7.1760   -5.7310 H   0  0  0  0  0  0  0  0  0  0  0  0
    9.0010   -5.5870   -7.5890 H   0  0  0  0  0  0  0  0  0  0  0  0
   11.0290   -6.6020   -5.7310 H   0  0  0  0  0  0  0  0  0  0  0  0
   10.6120   -6.7930   -9.0160 H   0  0  0  0  0  0  0  0  0  0  0  0
    9.1140   -7.6970   -8.9140 H   0  0  0  0  0  0  0  0  0  0  0  0
   10.5340   -8.2120   -7.9790 H   0  0  0  0  0  0  0  0  0  0  0  0
    6.7770   -7.7770   -2.2710 H   0  0  0  0  0  0  0  0  0  0  0  0
    7.1040   -5.4620   -1.5900 H   0  0  0  0  0  0  0  0  0  0  0  0
   11.4210   -5.0130   -6.9030 C   0  0  0  0  0  0  0  0  0  0  0  0
   11.6570   -4.9790   -8.1120 O   0  0  0  0  0  0  0  0  0  0  0  0
   11.9930   -3.9460   -6.0390 C   0  0  0  0  0  0  0  0  0  0  0  0
   11.6730   -3.7870   -4.6900 C   0  0  0  0  0  0  0  0  0  0  0  0
   12.1880   -2.6930   -3.9770 C   0  0  0  0  0  0  0  0  0  0  0  0
   13.0180   -1.7370   -4.5960 C   0  0  0  0  0  0  0  0  0  0  0  0
   13.5960   -0.6060   -3.8380 C   0  0  0  0  0  0  0  0  0  0  0  0
   14.9960   -0.3550   -3.7780 C   0  0  0  0  0  0  0  0  0  0  0  0
   15.4380    0.7850   -3.0690 C   0  0  0  0  0  0  0  0  0  0  0  0
   14.5500    1.6580   -2.4260 C   0  0  0  0  0  0  0  0  0  0  0  0
   15.1430    2.7160   -1.7930 O   0  0  0  0  0  0  0  0  0  0  0  0
   14.2870    3.6380   -1.1270 C   0  0  0  0  0  0  0  0  0  0  0  0
   13.1870    1.3960   -2.4760 C   0  0  0  0  0  0  0  0  0  0  0  0
   12.7190    0.2790   -3.1750 C   0  0  0  0  0  0  0  0  0  0  0  0
   16.0050   -1.2410   -4.4160 C   0  0  0  0  0  0  0  0  0  0  0  0
   16.9190   -0.7510   -5.3640 C   0  0  0  0  0  0  0  0  0  0  0  0
   17.8410   -1.5970   -6.0020 C   0  0  0  0  0  0  0  0  0  0  0  0
   17.8800   -2.9690   -5.7140 C   0  0  0  0  0  0  0  0  0  0  0  0
   16.9730   -3.4610   -4.7630 C   0  0  0  0  0  0  0  0  0  0  0  0
   16.0630   -2.6110   -4.1160 C   0  0  0  0  0  0  0  0  0  0  0  0
   18.9200   -3.9070   -6.3090 C   0  0  1  0  0  0  0  0  0  0  0  0
   18.9640   -3.9210   -7.7640 N   0  0  0  0  0  0  0  0  0  0  0  0
   20.3200   -3.5500   -5.7900 C   0  0  0  0  0  0  0  0  0  0  0  0
   13.2930   -1.8940   -5.9610 C   0  0  0  0  0  0  0  0  0  0  0  0
   12.8040   -2.9890   -6.6680 C   0  0  0  0  0  0  0  0  0  0  0  0
   11.0120   -4.4850   -4.1850 H   0  0  0  0  0  0  0  0  0  0  0  0
   11.9380   -2.5890   -2.9220 H   0  0  0  0  0  0  0  0  0  0  0  0
   16.5040    0.9980   -3.0050 H   0  0  0  0  0  0  0  0  0  0  0  0
   14.9140    4.4230   -0.6930 H   0  0  0  0  0  0  0  0  0  0  0  0
   13.7460    3.1530   -0.3080 H   0  0  0  0  0  0  0  0  0  0  0  0
   13.5950    4.1180   -1.8280 H   0  0  0  0  0  0  0  0  0  0  0  0
   12.4590    2.0400   -1.9940 H   0  0  0  0  0  0  0  0  0  0  0  0
   11.6440    0.1090   -3.2190 H   0  0  0  0  0  0  0  0  0  0  0  0
   16.9170    0.3070   -5.6220 H   0  0  0  0  0  0  0  0  0  0  0  0
   18.5410   -1.1660   -6.7130 H   0  0  0  0  0  0  0  0  0  0  0  0
   16.9670   -4.5180   -4.5040 H   0  0  0  0  0  0  0  0  0  0  0  0
   15.3800   -3.0380   -3.3840 H   0  0  0  0  0  0  0  0  0  0  0  0
   18.6940   -4.9290   -5.9750 H   0  0  0  0  0  0  0  0  0  0  0  0
   19.1980   -3.0490   -8.2130 H   0  0  0  0  0  0  0  0  0  0  0  0
   21.0690   -4.2570   -6.1710 H   0  0  0  0  0  0  0  0  0  0  0  0
   20.3660   -3.5620   -4.7020 H   0  0  0  0  0  0  0  0  0  0  0  0
   20.6280   -2.5550   -6.1380 H   0  0  0  0  0  0  0  0  0  0  0  0
   13.9090   -1.1670   -6.4880 H   0  0  0  0  0  0  0  0  0  0  0  0
   13.0440   -3.0800   -7.7260 H   0  0  0  0  0  0  0  0  0  0  0  0
   -2.3570   -6.6860    2.2400 C   0  0  0  0  0  0  0  0  0  0  0  0
   -2.8000   -5.3590    1.9590 O   0  0  0  0  0  0  0  0  0  0  0  0
   -2.5400   -7.3790    1.4120 H   0  0  0  0  0  0  0  0  0  0  0  0
   -2.8860   -7.0530    3.1230 H   0  0  0  0  0  0  0  0  0  0  0  0
   -1.2870   -6.6430    2.4680 H   0  0  0  0  0  0  0  0  0  0  0  0
   22.3900   -4.7080  -10.7030 C   0  0  0  0  0  0  0  0  0  0  0  0
   21.4110   -5.5430   -9.8540 C   0  0  0  0  0  0  0  0  0  0  0  0
   20.6750   -6.5200  -10.7730 C   0  0  0  0  0  0  0  0  0  0  0  0
   22.2460   -6.2880   -8.7960 C   0  0  0  0  0  0  0  0  0  0  0  0
   20.4760   -4.5890   -9.2730 O   0  0  0  0  0  0  0  0  0  0  0  0
   19.5800   -5.0070   -8.3450 C   0  0  0  0  0  0  0  0  0  0  0  0
   19.4290   -6.1590   -7.9690 O   0  0  0  0  0  0  0  0  0  0  0  0
   23.1260   -5.3410  -11.2220 H   0  0  0  0  0  0  0  0  0  0  0  0
   21.8500   -4.1240  -11.4540 H   0  0  0  0  0  0  0  0  0  0  0  0
   22.9310   -3.9890  -10.0790 H   0  0  0  0  0  0  0  0  0  0  0  0
   20.0370   -5.9770  -11.4790 H   0  0  0  0  0  0  0  0  0  0  0  0
   20.0220   -7.1910  -10.2080 H   0  0  0  0  0  0  0  0  0  0  0  0
   21.3770   -7.1400  -11.3420 H   0  0  0  0  0  0  0  0  0  0  0  0
   22.7160   -5.5870   -8.0970 H   0  0  0  0  0  0  0  0  0  0  0  0
   21.6430   -6.9760   -8.1970 H   0  0  0  0  0  0  0  0  0  0  0  0
   23.0350   -6.8890   -9.2650 H   0  0  0  0  0  0  0  0  0  0  0  0
  1134  1  0  0  0  0
  1  2  2  0  0  0  0
  1  3  1  0  0  0  0
  3  4  2  0  0  0  0
  4 26  1  0  0  0  0
  4  5  1  0  0  0  0
  5 27  1  0  0  0  0
  5  6  2  0  0  0  0
  6  7  1  0  0  0  0
  7 14  2  0  0  0  0
  7  8  1  0  0  0  0
  8  9  2  0  0  0  0
  9 10  1  0  0  0  0
 10 13  2  0  0  0  0
 10 11  1  0  0  0  0
 11 12  1  0  0  0  0
 12 30  1  0  0  0  0
 13 14  1  0  0  0  0
 13 32  1  0  0  0  0
 14 33  1  0  0  0  0
  8 15  1  0  0  0  0
 15 20  1  0  0  0  0
 15 16  2  0  0  0  0
 16 17  1  0  0  0  0
 17 18  2  0  0  0  0
 18 19  1  0  0  0  0
 19 20  2  0  0  0  0
 19 36  1  0  0  0  0
 20 37  1  0  0  0  0
 18 21  1  0  0  0  0
 21 38  1  0  0  0  0
 21 22  1  0  0  0  0
 21 23  1  0  0  0  0
 23 40  1  0  0  0  0
 23 41  1  0  0  0  0
 24 25  2  0  0  0  0
  6 24  1  0  0  0  0
  3 25  1  0  0  0  0
  9 28  1  0  0  0  0
 12 29  1  0  0  0  0
 12 31  1  0  0  0  0
 16 34  1  0  0  0  0
 17 35  1  0  0  0  0
 22 39  1  0  0  0  0
 23 42  1  0  0  0  0
 24 43  1  0  0  0  0
 25 44  1  0  0  0  0
 22 45  1  0  0  0  0
 45 46  2  0  0  0  0
 47 69  1  0  0  0  0
 45 47  1  0  0  0  0
 47 48  2  0  0  0  0
 49 50  2  0  0  0  0
 48 49  1  0  0  0  0
 50 68  1  0  0  0  0
 50 51  1  0  0  0  0
 51 58  2  0  0  0  0
 51 52  1  0  0  0  0
 52 53  2  0  0  0  0
 53 54  1  0  0  0  0
 54 57  2  0  0  0  0
 54 55  1  0  0  0  0
 55 56  1  0  0  0  0
 56 75  1  0  0  0  0
 57 58  1  0  0  0  0
 57 76  1  0  0  0  0
 58 77  1  0  0  0  0
 59 60  2  0  0  0  0
 52 59  1  0  0  0  0
 60 78  1  0  0  0  0
 61 79  1  0  0  0  0
 60 61  1  0  0  0  0
 62 63  1  0  0  0  0
 61 62  2  0  0  0  0
 63 64  2  0  0  0  0
 59 64  1  0  0  0  0
 65 82  1  0  0  0  0
 62 65  1  0  0  0  0
 65 66  1  0  0  0  0
 66 83  1  0  0  0  0
 67 86  1  0  0  0  0
 65 67  1  0  0  0  0
 68 87  1  0  0  0  0
 68 69  2  0  0  0  0
 69 88  1  0  0  0  0
 48 70  1  0  0  0  0
 49 71  1  0  0  0  0
 53 72  1  0  0  0  0
 56 73  1  0  0  0  0
 56 74  1  0  0  0  0
 63 80  1  0  0  0  0
 64 81  1  0  0  0  0
 67 84  1  0  0  0  0
 67 85  1  0  0  0  0
 66 89  1  0  0  0  0
 89 91  1  0  0  0  0
 89 90  2  0  0  0  0
 91 92  2  0  0  0  0
 92114  1  0  0  0  0
 92 93  1  0  0  0  0
 93115  1  0  0  0  0
 93 94  2  0  0  0  0
 94 95  1  0  0  0  0
 95 96  1  0  0  0  0
 95102  2  0  0  0  0
 96 97  2  0  0  0  0
 97116  1  0  0  0  0
 97 98  1  0  0  0  0
 98 99  1  0  0  0  0
 99100  1  0  0  0  0
100117  1  0  0  0  0
100118  1  0  0  0  0
 98101  2  0  0  0  0
101120  1  0  0  0  0
101102  1  0  0  0  0
103108  1  0  0  0  0
 96103  1  0  0  0  0
103104  2  0  0  0  0
105106  2  0  0  0  0
104105  1  0  0  0  0
106107  1  0  0  0  0
107124  1  0  0  0  0
107108  2  0  0  0  0
108125  1  0  0  0  0
109126  1  0  0  0  0
109111  1  0  0  0  0
106109  1  0  0  0  0
109110  1  0  0  0  0
111129  1  0  0  0  0
 94112  1  0  0  0  0
 91113  1  0  0  0  0
112113  2  0  0  0  0
100119  1  0  0  0  0
102121  1  0  0  0  0
104122  1  0  0  0  0
105123  1  0  0  0  0
110127  1  0  0  0  0
111128  1  0  0  0  0
111130  1  0  0  0  0
112131  1  0  0  0  0
113132  1  0  0  0  0
133137  1  0  0  0  0
133136  1  0  0  0  0
133134  1  0  0  0  0
133135  1  0  0  0  0
138147  1  0  0  0  0
138139  1  0  0  0  0
139142  1  0  0  0  0
139141  1  0  0  0  0
140149  1  0  0  0  0
139140  1  0  0  0  0
141152  1  0  0  0  0
141151  1  0  0  0  0
142143  1  0  0  0  0
143144  2  0  0  0  0
110143  1  0  0  0  0
138145  1  0  0  0  0
138146  1  0  0  0  0
140148  1  0  0  0  0
140150  1  0  0  0  0
141153  1  0  0  0  0
M  END
> <atom.dprop.PartialCharge>
0.647090 -0.540210 -0.134720 -0.076600 -0.130500 0.000610 -0.078820 0.007850 -0.141490 0.127580 -0.327150 0.111160 -0.198690 -0.079470 -0.038730 -0.112840 -0.122960 -0.097740 -0.122960 -0.112840 0.145730 -0.569250 -0.105940 -0.130500 -0.076600 0.152080 0.142430 0.155580 0.046080 0.046080 0.046080 0.142140 0.140760 0.139910 0.134260 0.134260 0.139910 0.094590 0.308930 0.044660 0.044660 0.044660 0.142430 0.152080 0.677050 -0.609970 -0.140050 -0.093160 -0.124640 -0.008180 -0.079700 0.009880 -0.144010 0.127140 -0.324320 0.112210 -0.203530 -0.082600 -0.041660 -0.111170 -0.121300 -0.091480 -0.121300 -0.111170 0.152140 -0.575790 -0.109450 -0.124640 -0.093160 0.144460 0.142020 0.157980 0.045480 0.045480 0.045480 0.141440 0.139980 0.136580 0.136840 0.136840 0.136580 0.086970 0.312230 0.044290 0.044290 0.044290 0.142020 0.144460 0.677010 -0.605250 -0.138940 -0.089910 -0.124310 -0.012550 -0.069780 0.009170 -0.203120 0.123520 -0.325390 0.111700 -0.150950 -0.082940 -0.045410 -0.113500 -0.117560 -0.098610 -0.117560 -0.113500 0.155380 -0.553000 -0.100320 -0.124310 -0.089910 0.147750 0.140440 0.144030 0.044870 0.044870 0.044870 0.149800 0.144690 0.135200 0.135300 0.135300 0.135200 0.089390 0.322450 0.045590 0.045590 0.045590 0.140440 0.147750 0.127870 -0.434330 0.051040 0.051040 0.051040 -0.115760 0.188860 -0.115760 -0.115760 -0.442720 0.749270 -0.590490 0.052020 0.052020 0.052020 0.052020 0.052020 0.052020 0.052020 0.052020 0.052020

$$$$
