pop_trimer.pdb
  -OEChem-09052520273D

153161  0     1  0  0  0  0  0999 V2000
   -2.4560   -4.9330    0.7190 C   0  0  0  0  0  0  0  0  0  0  0  0
   -2.0820   -5.6410   -0.2040 O   0  0  0  0  0  0  0  0  0  0  0  0
   -2.4360   -3.4480    0.6650 C   0  0  0  0  0  0  0  0  0  0  0  0
   -2.8590   -2.6370    1.7240 C   0  0  0  0  0  0  0  0  0  0  0  0
   -2.7080   -1.2450    1.6480 C   0  0  0  0  0  0  0  0  0  0  0  0
   -2.1420   -0.6350    0.5140 C   0  0  0  0  0  0  0  0  0  0  0  0
   -1.9560    0.8330    0.4400 C   0  0  0  0  0  0  0  0  0  0  0  0
   -0.7010    1.4440    0.1670 C   0  0  0  0  0  0  0  0  0  0  0  0
   -0.6550    2.8520    0.0400 C   0  0  0  0  0  0  0  0  0  0  0  0
   -1.7910    3.6570    0.1980 C   0  0  0  0  0  0  0  0  0  0  0  0
   -1.5690    4.9960    0.0360 O   0  0  0  0  0  0  0  0  0  0  0  0
   -2.6770    5.8720    0.2140 C   0  0  0  0  0  0  0  0  0  0  0  0
   -3.0060    3.0560    0.4940 C   0  0  0  0  0  0  0  0  0  0  0  0
   -3.0850    1.6630    0.6110 C   0  0  0  0  0  0  0  0  0  0  0  0
    0.5590    0.6720    0.0250 C   0  0  0  0  0  0  0  0  0  0  0  0
    1.3480    0.7650   -1.1330 C   0  0  0  0  0  0  0  0  0  0  0  0
    2.5220    0.0100   -1.2810 C   0  0  0  0  0  0  0  0  0  0  0  0
    2.9500   -0.8600   -0.2690 C   0  0  0  0  0  0  0  0  0  0  0  0
    2.1640   -0.9580    0.8890 C   0  0  0  0  0  0  0  0  0  0  0  0
    1.0000   -0.1970    1.0360 C   0  0  0  0  0  0  0  0  0  0  0  0
    4.2760   -1.6030   -0.3410 C   0  0  1  0  0  0  0  0  0  0  0  0
    4.3200   -2.5650   -1.4370 N   0  0  0  0  0  0  0  0  0  0  0  0
    5.4350   -0.6000   -0.3470 C   0  0  0  0  0  0  0  0  0  0  0  0
   -1.7490   -1.4650   -0.5490 C   0  0  0  0  0  0  0  0  0  0  0  0
   -1.8840   -2.8530   -0.4730 C   0  0  0  0  0  0  0  0  0  0  0  0
   -3.2830   -3.0720    2.6270 H   0  0  0  0  0  0  0  0  0  0  0  0
   -3.0130   -0.6370    2.4980 H   0  0  0  0  0  0  0  0  0  0  0  0
    0.2920    3.3430   -0.1760 H   0  0  0  0  0  0  0  0  0  0  0  0
   -2.3170    6.8960    0.0690 H   0  0  0  0  0  0  0  0  0  0  0  0
   -3.0780    5.8040    1.2310 H   0  0  0  0  0  0  0  0  0  0  0  0
   -3.4560    5.6860   -0.5320 H   0  0  0  0  0  0  0  0  0  0  0  0
   -3.9150    3.6330    0.6320 H   0  0  0  0  0  0  0  0  0  0  0  0
   -4.0570    1.2160    0.8180 H   0  0  0  0  0  0  0  0  0  0  0  0
    1.0500    1.4340   -1.9390 H   0  0  0  0  0  0  0  0  0  0  0  0
    3.1100    0.1330   -2.1880 H   0  0  0  0  0  0  0  0  0  0  0  0
    2.4620   -1.6160    1.7030 H   0  0  0  0  0  0  0  0  0  0  0  0
    0.4280   -0.2900    1.9590 H   0  0  0  0  0  0  0  0  0  0  0  0
    4.3790   -2.2140    0.5660 H   0  0  0  0  0  0  0  0  0  0  0  0
    4.0950   -2.2000   -2.3530 H   0  0  0  0  0  0  0  0  0  0  0  0
    6.4090   -1.0890   -0.2640 H   0  0  0  0  0  0  0  0  0  0  0  0
    5.3560    0.0780    0.5090 H   0  0  0  0  0  0  0  0  0  0  0  0
    5.4490   -0.0060   -1.2650 H   0  0  0  0  0  0  0  0  0  0  0  0
   -1.3000   -1.0370   -1.4430 H   0  0  0  0  0  0  0  0  0  0  0  0
   -1.5290   -3.4670   -1.2980 H   0  0  0  0  0  0  0  0  0  0  0  0
    5.3530   -3.4870   -1.4530 C   0  0  0  0  0  0  0  0  0  0  0  0
    6.4530   -3.2670   -0.9370 O   0  0  0  0  0  0  0  0  0  0  0  0
    5.0910   -4.8360   -2.0120 C   0  0  0  0  0  0  0  0  0  0  0  0
    3.8400   -5.2570   -2.4580 C   0  0  0  0  0  0  0  0  0  0  0  0
    3.6560   -6.5880   -2.8670 C   0  0  0  0  0  0  0  0  0  0  0  0
    4.7120   -7.5200   -2.8300 C   0  0  0  0  0  0  0  0  0  0  0  0
    4.5350   -8.9150   -3.2950 C   0  0  0  0  0  0  0  0  0  0  0  0
    5.3550   -9.4980   -4.2970 C   0  0  0  0  0  0  0  0  0  0  0  0
    5.1430  -10.8570   -4.6300 C   0  0  0  0  0  0  0  0  0  0  0  0
    4.1470  -11.6290   -4.0210 C   0  0  0  0  0  0  0  0  0  0  0  0
    4.0790  -12.9250   -4.4550 O   0  0  0  0  0  0  0  0  0  0  0  0
    3.0790  -13.7580   -3.8820 C   0  0  0  0  0  0  0  0  0  0  0  0
    3.3290  -11.0440   -3.0610 C   0  0  0  0  0  0  0  0  0  0  0  0
    3.5270   -9.7050   -2.7020 C   0  0  0  0  0  0  0  0  0  0  0  0
    6.4190   -8.7410   -5.0110 C   0  0  0  0  0  0  0  0  0  0  0  0
    7.7530   -9.1650   -5.0130 C   0  0  0  0  0  0  0  0  0  0  0  0
    8.7590   -8.4210   -5.6670 C   0  0  0  0  0  0  0  0  0  0  0  0
    8.4470   -7.2410   -6.3460 C   0  0  0  0  0  0  0  0  0  0  0  0
    7.1080   -6.8140   -6.3520 C   0  0  0  0  0  0  0  0  0  0  0  0
    6.1130   -7.5560   -5.7060 C   0  0  0  0  0  0  0  0  0  0  0  0
    9.4870   -6.4710   -7.1520 C   0  0  1  0  0  0  0  0  0  0  0  0
   10.5710   -5.9410   -6.3270 N   0  0  0  0  0  0  0  0  0  0  0  0
    9.9610   -7.3350   -8.3270 C   0  0  0  0  0  0  0  0  0  0  0  0
    5.9530   -7.0830   -2.3460 C   0  0  0  0  0  0  0  0  0  0  0  0
    6.1450   -5.7590   -1.9580 C   0  0  0  0  0  0  0  0  0  0  0  0
    2.9890   -4.5790   -2.4710 H   0  0  0  0  0  0  0  0  0  0  0  0
    2.6730   -6.9000   -3.2200 H   0  0  0  0  0  0  0  0  0  0  0  0
    5.7560  -11.3250   -5.4010 H   0  0  0  0  0  0  0  0  0  0  0  0
    3.1700  -14.7490   -4.3380 H   0  0  0  0  0  0  0  0  0  0  0  0
    2.0750  -13.3810   -4.1060 H   0  0  0  0  0  0  0  0  0  0  0  0
    3.2260  -13.8750   -2.8040 H   0  0  0  0  0  0  0  0  0  0  0  0
    2.5340  -11.5940   -2.5700 H   0  0  0  0  0  0  0  0  0  0  0  0
    2.8890   -9.2780   -1.9320 H   0  0  0  0  0  0  0  0  0  0  0  0
    8.0310  -10.0840   -4.4990 H   0  0  0  0  0  0  0  0  0  0  0  0
    9.7770   -8.8090   -5.6520 H   0  0  0  0  0  0  0  0  0  0  0  0
    6.8180   -5.9030   -6.8720 H   0  0  0  0  0  0  0  0  0  0  0  0
    5.0880   -7.1940   -5.7400 H   0  0  0  0  0  0  0  0  0  0  0  0
    9.0040   -5.5810   -7.5780 H   0  0  0  0  0  0  0  0  0  0  0  0
   11.0440   -6.6220   -5.7520 H   0  0  0  0  0  0  0  0  0  0  0  0
   10.6210   -6.7940   -9.0080 H   0  0  0  0  0  0  0  0  0  0  0  0
    9.1050   -7.6660   -8.9250 H   0  0  0  0  0  0  0  0  0  0  0  0
   10.5080   -8.2190   -7.9820 H   0  0  0  0  0  0  0  0  0  0  0  0
    6.7940   -7.7720   -2.2800 H   0  0  0  0  0  0  0  0  0  0  0  0
    7.1230   -5.4590   -1.5870 H   0  0  0  0  0  0  0  0  0  0  0  0
   11.4390   -5.0220   -6.9020 C   0  0  0  0  0  0  0  0  0  0  0  0
   11.6940   -5.0110   -8.1040 O   0  0  0  0  0  0  0  0  0  0  0  0
   12.0000   -3.9500   -6.0460 C   0  0  0  0  0  0  0  0  0  0  0  0
   11.6620   -3.7810   -4.7020 C   0  0  0  0  0  0  0  0  0  0  0  0
   12.1710   -2.6850   -3.9880 C   0  0  0  0  0  0  0  0  0  0  0  0
   13.0120   -1.7360   -4.6010 C   0  0  0  0  0  0  0  0  0  0  0  0
   13.5890   -0.6050   -3.8380 C   0  0  0  0  0  0  0  0  0  0  0  0
   14.9890   -0.3500   -3.7840 C   0  0  0  0  0  0  0  0  0  0  0  0
   15.4310    0.7930   -3.0830 C   0  0  0  0  0  0  0  0  0  0  0  0
   14.5450    1.6640   -2.4340 C   0  0  0  0  0  0  0  0  0  0  0  0
   15.1400    2.7260   -1.8100 O   0  0  0  0  0  0  0  0  0  0  0  0
   14.2940    3.6350   -1.1150 C   0  0  0  0  0  0  0  0  0  0  0  0
   13.1840    1.3930   -2.4690 C   0  0  0  0  0  0  0  0  0  0  0  0
   12.7140    0.2740   -3.1640 C   0  0  0  0  0  0  0  0  0  0  0  0
   15.9970   -1.2390   -4.4200 C   0  0  0  0  0  0  0  0  0  0  0  0
   16.9130   -0.7520   -5.3680 C   0  0  0  0  0  0  0  0  0  0  0  0
   17.8380   -1.5980   -6.0050 C   0  0  0  0  0  0  0  0  0  0  0  0
   17.8760   -2.9690   -5.7160 C   0  0  0  0  0  0  0  0  0  0  0  0
   16.9680   -3.4590   -4.7610 C   0  0  0  0  0  0  0  0  0  0  0  0
   16.0580   -2.6080   -4.1190 C   0  0  0  0  0  0  0  0  0  0  0  0
   18.9170   -3.9080   -6.3060 C   0  0  1  0  0  0  0  0  0  0  0  0
   18.9670   -3.9230   -7.7620 N   0  0  0  0  0  0  0  0  0  0  0  0
   20.3160   -3.5500   -5.7840 C   0  0  0  0  0  0  0  0  0  0  0  0
   13.3050   -1.9010   -5.9620 C   0  0  0  0  0  0  0  0  0  0  0  0
   12.8210   -3.0020   -6.6690 C   0  0  0  0  0  0  0  0  0  0  0  0
   10.9920   -4.4740   -4.2010 H   0  0  0  0  0  0  0  0  0  0  0  0
   11.9090   -2.5770   -2.9370 H   0  0  0  0  0  0  0  0  0  0  0  0
   16.4960    1.0100   -3.0260 H   0  0  0  0  0  0  0  0  0  0  0  0
   14.9300    4.4100   -0.6750 H   0  0  0  0  0  0  0  0  0  0  0  0
   13.7640    3.1370   -0.2970 H   0  0  0  0  0  0  0  0  0  0  0  0
   13.5950    4.1290   -1.7980 H   0  0  0  0  0  0  0  0  0  0  0  0
   12.4570    2.0320   -1.9770 H   0  0  0  0  0  0  0  0  0  0  0  0
   11.6390    0.0970   -3.1930 H   0  0  0  0  0  0  0  0  0  0  0  0
   16.9070    0.3060   -5.6330 H   0  0  0  0  0  0  0  0  0  0  0  0
   18.5350   -1.1670   -6.7170 H   0  0  0  0  0  0  0  0  0  0  0  0
   16.9640   -4.5140   -4.4960 H   0  0  0  0  0  0  0  0  0  0  0  0
   15.3780   -3.0330   -3.3820 H   0  0  0  0  0  0  0  0  0  0  0  0
   18.6890   -4.9300   -5.9730 H   0  0  0  0  0  0  0  0  0  0  0  0
   19.2070   -3.0520   -8.2090 H   0  0  0  0  0  0  0  0  0  0  0  0
   21.0610   -4.2740   -6.1360 H   0  0  0  0  0  0  0  0  0  0  0  0
   20.3490   -3.5320   -4.6910 H   0  0  0  0  0  0  0  0  0  0  0  0
   20.6340   -2.5670   -6.1530 H   0  0  0  0  0  0  0  0  0  0  0  0
   13.9330   -1.1820   -6.4850 H   0  0  0  0  0  0  0  0  0  0  0  0
   13.0780   -3.1000   -7.7230 H   0  0  0  0  0  0  0  0  0  0  0  0
   -2.3660   -6.6880    2.2450 C   0  0  0  0  0  0  0  0  0  0  0  0
   -2.8030   -5.3590    1.9580 O   0  0  0  0  0  0  0  0  0  0  0  0
   -2.5340   -7.3790    1.4140 H   0  0  0  0  0  0  0  0  0  0  0  0
   -2.9130   -7.0550    3.1180 H   0  0  0  0  0  0  0  0  0  0  0  0
   -1.3020   -6.6470    2.4950 H   0  0  0  0  0  0  0  0  0  0  0  0
   22.3780   -4.7090  -10.7080 C   0  0  0  0  0  0  0  0  0  0  0  0
   21.4110   -5.5480   -9.8560 C   0  0  0  0  0  0  0  0  0  0  0  0
   20.6680   -6.5210  -10.7730 C   0  0  0  0  0  0  0  0  0  0  0  0
   22.2520   -6.2970   -8.8070 C   0  0  0  0  0  0  0  0  0  0  0  0
   20.4790   -4.5940   -9.2660 O   0  0  0  0  0  0  0  0  0  0  0  0
   19.5800   -5.0120   -8.3380 C   0  0  0  0  0  0  0  0  0  0  0  0
   19.4230   -6.1650   -7.9690 O   0  0  0  0  0  0  0  0  0  0  0  0
   23.1050   -5.3400  -11.2330 H   0  0  0  0  0  0  0  0  0  0  0  0
   21.8350   -4.1150  -11.4520 H   0  0  0  0  0  0  0  0  0  0  0  0
   22.9340   -3.9970  -10.0850 H   0  0  0  0  0  0  0  0  0  0  0  0
   20.0240   -5.9770  -11.4730 H   0  0  0  0  0  0  0  0  0  0  0  0
   20.0190   -7.1960  -10.2050 H   0  0  0  0  0  0  0  0  0  0  0  0
   21.3660   -7.1390  -11.3480 H   0  0  0  0  0  0  0  0  0  0  0  0
   22.7470   -5.5970   -8.1240 H   0  0  0  0  0  0  0  0  0  0  0  0
   21.6500   -6.9690   -8.1890 H   0  0  0  0  0  0  0  0  0  0  0  0
   23.0220   -6.9120   -9.2860 H   0  0  0  0  0  0  0  0  0  0  0  0
  1134  1  0  0  0  0
  1  2  2  0  0  0  0
  1  3  1  0  0  0  0
  3  4  2  0  0  0  0
  4 26  1  0  0  0  0
  4  5  1  0  0  0  0
  5 27  1  0  0  0  0
  5  6  2  0  0  0  0
  6  7  1  0  0  0  0
  7 14  2  0  0  0  0
  7  8  1  0  0  0  0
  8  9  2  0  0  0  0
  9 10  1  0  0  0  0
 10 13  2  0  0  0  0
 10 11  1  0  0  0  0
 11 12  1  0  0  0  0
 12 30  1  0  0  0  0
 13 14  1  0  0  0  0
 13 32  1  0  0  0  0
 14 33  1  0  0  0  0
  8 15  1  0  0  0  0
 15 20  1  0  0  0  0
 15 16  2  0  0  0  0
 16 17  1  0  0  0  0
 17 18  2  0  0  0  0
 18 19  1  0  0  0  0
 19 20  2  0  0  0  0
 19 36  1  0  0  0  0
 20 37  1  0  0  0  0
 18 21  1  0  0  0  0
 21 38  1  0  0  0  0
 21 22  1  0  0  0  0
 21 23  1  0  0  0  0
 23 40  1  0  0  0  0
 23 41  1  0  0  0  0
 24 25  2  0  0  0  0
  6 24  1  0  0  0  0
  3 25  1  0  0  0  0
  9 28  1  0  0  0  0
 12 29  1  0  0  0  0
 12 31  1  0  0  0  0
 16 34  1  0  0  0  0
 17 35  1  0  0  0  0
 22 39  1  0  0  0  0
 23 42  1  0  0  0  0
 24 43  1  0  0  0  0
 25 44  1  0  0  0  0
 22 45  1  0  0  0  0
 45 46  2  0  0  0  0
 47 69  1  0  0  0  0
 45 47  1  0  0  0  0
 47 48  2  0  0  0  0
 49 50  2  0  0  0  0
 48 49  1  0  0  0  0
 50 68  1  0  0  0  0
 50 51  1  0  0  0  0
 51 58  2  0  0  0  0
 51 52  1  0  0  0  0
 52 53  2  0  0  0  0
 53 54  1  0  0  0  0
 54 57  2  0  0  0  0
 54 55  1  0  0  0  0
 55 56  1  0  0  0  0
 56 75  1  0  0  0  0
 57 58  1  0  0  0  0
 57 76  1  0  0  0  0
 58 77  1  0  0  0  0
 52 59  1  0  0  0  0
 59 60  2  0  0  0  0
 60 78  1  0  0  0  0
 61 79  1  0  0  0  0
 60 61  1  0  0  0  0
 61 62  2  0  0  0  0
 62 63  1  0  0  0  0
 63 64  2  0  0  0  0
 59 64  1  0  0  0  0
 65 82  1  0  0  0  0
 62 65  1  0  0  0  0
 65 66  1  0  0  0  0
 66 83  1  0  0  0  0
 67 86  1  0  0  0  0
 65 67  1  0  0  0  0
 68 87  1  0  0  0  0
 68 69  2  0  0  0  0
 69 88  1  0  0  0  0
 48 70  1  0  0  0  0
 49 71  1  0  0  0  0
 53 72  1  0  0  0  0
 56 73  1  0  0  0  0
 56 74  1  0  0  0  0
 63 80  1  0  0  0  0
 64 81  1  0  0  0  0
 67 84  1  0  0  0  0
 67 85  1  0  0  0  0
 66 89  1  0  0  0  0
 89 91  1  0  0  0  0
 89 90  2  0  0  0  0
 91 92  2  0  0  0  0
 92114  1  0  0  0  0
 92 93  1  0  0  0  0
 93115  1  0  0  0  0
 93 94  2  0  0  0  0
 94 95  1  0  0  0  0
 95 96  1  0  0  0  0
 95102  2  0  0  0  0
 96 97  2  0  0  0  0
 97116  1  0  0  0  0
 97 98  1  0  0  0  0
 98 99  1  0  0  0  0
 99100  1  0  0  0  0
100117  1  0  0  0  0
100118  1  0  0  0  0
 98101  2  0  0  0  0
101120  1  0  0  0  0
101102  1  0  0  0  0
103108  1  0  0  0  0
 96103  1  0  0  0  0
103104  2  0  0  0  0
105106  2  0  0  0  0
104105  1  0  0  0  0
106107  1  0  0  0  0
107124  1  0  0  0  0
107108  2  0  0  0  0
108125  1  0  0  0  0
109126  1  0  0  0  0
109111  1  0  0  0  0
106109  1  0  0  0  0
109110  1  0  0  0  0
111129  1  0  0  0  0
 94112  1  0  0  0  0
 91113  1  0  0  0  0
112113  2  0  0  0  0
100119  1  0  0  0  0
102121  1  0  0  0  0
104122  1  0  0  0  0
105123  1  0  0  0  0
110127  1  0  0  0  0
111128  1  0  0  0  0
111130  1  0  0  0  0
112131  1  0  0  0  0
113132  1  0  0  0  0
133137  1  0  0  0  0
133136  1  0  0  0  0
133134  1  0  0  0  0
133135  1  0  0  0  0
138147  1  0  0  0  0
138139  1  0  0  0  0
139142  1  0  0  0  0
139141  1  0  0  0  0
140149  1  0  0  0  0
139140  1  0  0  0  0
141152  1  0  0  0  0
141151  1  0  0  0  0
142143  1  0  0  0  0
143144  2  0  0  0  0
110143  1  0  0  0  0
138145  1  0  0  0  0
138146  1  0  0  0  0
140148  1  0  0  0  0
140150  1  0  0  0  0
141153  1  0  0  0  0
M  END
> <atom.dprop.PartialCharge>
0.645160 -0.541260 -0.130550 -0.078700 -0.130320 -0.002210 -0.078770 0.006900 -0.142010 0.128090 -0.327310 0.111580 -0.199170 -0.079360 -0.040650 -0.112720 -0.121990 -0.097950 -0.121990 -0.112720 0.147750 -0.569920 -0.105780 -0.130320 -0.078700 0.153590 0.142640 0.155070 0.046370 0.046370 0.046370 0.141480 0.140960 0.139710 0.134800 0.134800 0.139710 0.093630 0.306460 0.044450 0.044450 0.044450 0.142640 0.153590 0.676670 -0.607320 -0.142970 -0.091250 -0.125360 -0.007980 -0.077660 0.008590 -0.144980 0.127940 -0.324690 0.113630 -0.203100 -0.083220 -0.042240 -0.112970 -0.120790 -0.086990 -0.120790 -0.112970 0.148780 -0.570360 -0.108090 -0.125360 -0.091250 0.143850 0.141410 0.157680 0.045080 0.045080 0.045080 0.141610 0.140680 0.137420 0.136480 0.136480 0.137420 0.088860 0.312700 0.044200 0.044200 0.044200 0.141410 0.143850 0.675280 -0.608990 -0.135610 -0.090130 -0.125660 -0.014090 -0.071770 0.011250 -0.202030 0.127410 -0.336790 0.115490 -0.150380 -0.080590 -0.044220 -0.112470 -0.118050 -0.100730 -0.118050 -0.112470 0.154300 -0.544600 -0.099340 -0.125660 -0.090130 0.147510 0.141810 0.142930 0.046610 0.046610 0.046610 0.149570 0.141850 0.132870 0.135650 0.135650 0.132870 0.090400 0.318930 0.045540 0.045540 0.045540 0.141810 0.147510 0.134670 -0.440090 0.051560 0.051560 0.051560 -0.115130 0.188880 -0.115130 -0.115130 -0.443170 0.745290 -0.586920 0.051410 0.051410 0.051410 0.051410 0.051410 0.051410 0.051410 0.051410 0.051410

$$$$
