mop_trimer.pdb
  -OEChem-10052410443D

153161  0     1  0  0  0  0  0999 V2000
   -3.4480   -4.7200    0.0230 C   0  0  0  0  0  0  0  0  0  0  0  0
   -3.8720   -5.2760   -0.9760 O   0  0  0  0  0  0  0  0  0  0  0  0
   -3.0040   -3.3070    0.0470 C   0  0  0  0  0  0  0  0  0  0  0  0
   -2.0440   -2.8330    0.9440 C   0  0  0  0  0  0  0  0  0  0  0  0
   -1.7100   -1.4730    0.9540 C   0  0  0  0  0  0  0  0  0  0  0  0
   -2.3340   -0.5680    0.0710 C   0  0  0  0  0  0  0  0  0  0  0  0
   -2.0050    0.8690    0.0680 C   0  0  0  0  0  0  0  0  0  0  0  0
   -0.7310    1.3630   -0.2870 C   0  0  0  0  0  0  0  0  0  0  0  0
   -0.4860    2.7490   -0.2180 C   0  0  0  0  0  0  0  0  0  0  0  0
   -1.4700    3.6540    0.1680 C   0  0  0  0  0  0  0  0  0  0  0  0
   -1.0590    4.9560    0.1990 O   0  0  0  0  0  0  0  0  0  0  0  0
   -2.0410    5.9310    0.5160 C   0  0  0  0  0  0  0  0  0  0  0  0
   -2.7350    3.1740    0.4850 C   0  0  0  0  0  0  0  0  0  0  0  0
   -2.9950    1.7990    0.4380 C   0  0  0  0  0  0  0  0  0  0  0  0
    0.3760    0.4860   -0.6870 C   0  0  0  0  0  0  0  0  0  0  0  0
    0.3020   -0.3560   -1.8130 C   0  0  0  0  0  0  0  0  0  0  0  0
    1.3520   -1.2100   -2.1320 C   0  0  0  0  0  0  0  0  0  0  0  0
    2.4970   -1.2160   -1.3490 C   0  0  0  0  0  0  0  0  0  0  0  0
    2.5980   -0.3680   -0.2360 C   0  0  0  0  0  0  0  0  0  0  0  0
    1.5340    0.4680    0.0920 C   0  0  0  0  0  0  0  0  0  0  0  0
    3.8040   -0.3910    0.6740 C   0  0  1  0  0  0  0  0  0  0  0  0
    3.8580   -1.7160    1.2710 N   0  0  0  0  0  0  0  0  0  0  0  0
    5.0320   -0.0260   -0.1620 C   0  0  0  0  0  0  0  0  0  0  0  0
   -3.2780   -1.0720   -0.8370 C   0  0  0  0  0  0  0  0  0  0  0  0
   -3.6060   -2.4280   -0.8570 C   0  0  0  0  0  0  0  0  0  0  0  0
   -1.5460   -3.5090    1.6350 H   0  0  0  0  0  0  0  0  0  0  0  0
   -0.9540   -1.1200    1.6530 H   0  0  0  0  0  0  0  0  0  0  0  0
    0.5040    3.1340   -0.4670 H   0  0  0  0  0  0  0  0  0  0  0  0
   -1.5530    6.9100    0.4970 H   0  0  0  0  0  0  0  0  0  0  0  0
   -2.4420    5.7770    1.5230 H   0  0  0  0  0  0  0  0  0  0  0  0
   -2.8380    5.9380   -0.2340 H   0  0  0  0  0  0  0  0  0  0  0  0
   -3.5400    3.8360    0.7850 H   0  0  0  0  0  0  0  0  0  0  0  0
   -3.9880    1.4450    0.7120 H   0  0  0  0  0  0  0  0  0  0  0  0
   -0.5910   -0.3580   -2.4290 H   0  0  0  0  0  0  0  0  0  0  0  0
    1.2690   -1.8800   -2.9830 H   0  0  0  0  0  0  0  0  0  0  0  0
    3.3030   -1.9010   -1.5990 H   0  0  0  0  0  0  0  0  0  0  0  0
    1.5930    1.0860    0.9870 H   0  0  0  0  0  0  0  0  0  0  0  0
    3.6980    0.3460    1.4800 H   0  0  0  0  0  0  0  0  0  0  0  0
    4.1700   -2.4270    0.6330 H   0  0  0  0  0  0  0  0  0  0  0  0
    5.3610   -0.8520   -0.8000 H   0  0  0  0  0  0  0  0  0  0  0  0
    5.8730    0.2580    0.4640 H   0  0  0  0  0  0  0  0  0  0  0  0
    4.8320    0.8390   -0.8060 H   0  0  0  0  0  0  0  0  0  0  0  0
   -3.7600   -0.4020   -1.5480 H   0  0  0  0  0  0  0  0  0  0  0  0
   -4.3420   -2.7920   -1.5700 H   0  0  0  0  0  0  0  0  0  0  0  0
    2.9130   -2.0760    2.2270 C   0  0  0  0  0  0  0  0  0  0  0  0
    2.4410   -1.2670    3.0260 O   0  0  0  0  0  0  0  0  0  0  0  0
    2.4130   -3.4890    2.1960 C   0  0  0  0  0  0  0  0  0  0  0  0
    2.9340   -4.4610    1.3310 C   0  0  0  0  0  0  0  0  0  0  0  0
    2.3370   -5.7190    1.2220 C   0  0  0  0  0  0  0  0  0  0  0  0
    1.2170   -6.0620    1.9880 C   0  0  0  0  0  0  0  0  0  0  0  0
    0.5820   -7.3850    1.8250 C   0  0  0  0  0  0  0  0  0  0  0  0
    1.2270   -8.6040    2.1430 C   0  0  0  0  0  0  0  0  0  0  0  0
    0.5510   -9.8230    1.9110 C   0  0  0  0  0  0  0  0  0  0  0  0
   -0.7210   -9.8640    1.3450 C   0  0  0  0  0  0  0  0  0  0  0  0
   -1.2360  -11.1160    1.1610 O   0  0  0  0  0  0  0  0  0  0  0  0
   -2.6090  -11.1920    0.7950 C   0  0  0  0  0  0  0  0  0  0  0  0
   -1.3290   -8.6700    0.9850 C   0  0  0  0  0  0  0  0  0  0  0  0
   -0.6910   -7.4500    1.2350 C   0  0  0  0  0  0  0  0  0  0  0  0
    2.6230   -8.6630    2.6040 C   0  0  0  0  0  0  0  0  0  0  0  0
    3.0470   -8.0720    3.7990 C   0  0  0  0  0  0  0  0  0  0  0  0
    4.3970   -8.0790    4.1520 C   0  0  0  0  0  0  0  0  0  0  0  0
    5.3360   -8.6900    3.3190 C   0  0  0  0  0  0  0  0  0  0  0  0
    4.9380   -9.2980    2.1190 C   0  0  0  0  0  0  0  0  0  0  0  0
    3.5810   -9.2760    1.7800 C   0  0  0  0  0  0  0  0  0  0  0  0
    5.9280   -9.8720    1.1170 C   0  0  1  0  0  0  0  0  0  0  0  0
    6.7780   -8.7990    0.6230 N   0  0  0  0  0  0  0  0  0  0  0  0
    6.7530  -10.9930    1.7500 C   0  0  0  0  0  0  0  0  0  0  0  0
    0.7170   -5.1030    2.8840 C   0  0  0  0  0  0  0  0  0  0  0  0
    1.3080   -3.8320    2.9860 C   0  0  0  0  0  0  0  0  0  0  0  0
    3.7920   -4.2790    0.7060 H   0  0  0  0  0  0  0  0  0  0  0  0
    2.7570   -6.4370    0.5180 H   0  0  0  0  0  0  0  0  0  0  0  0
    1.0420  -10.7640    2.1530 H   0  0  0  0  0  0  0  0  0  0  0  0
   -2.8890  -12.2490    0.7650 H   0  0  0  0  0  0  0  0  0  0  0  0
   -2.7760  -10.7770   -0.2050 H   0  0  0  0  0  0  0  0  0  0  0  0
   -3.2430  -10.6980    1.5390 H   0  0  0  0  0  0  0  0  0  0  0  0
   -2.2880   -8.6560    0.4820 H   0  0  0  0  0  0  0  0  0  0  0  0
   -1.1760   -6.5300    0.9170 H   0  0  0  0  0  0  0  0  0  0  0  0
    2.3300   -7.5730    4.4470 H   0  0  0  0  0  0  0  0  0  0  0  0
    4.7160   -7.5840    5.0660 H   0  0  0  0  0  0  0  0  0  0  0  0
    6.3840   -8.6550    3.6030 H   0  0  0  0  0  0  0  0  0  0  0  0
    3.2650   -9.6940    0.8230 H   0  0  0  0  0  0  0  0  0  0  0  0
    5.3890  -10.2890    0.2570 H   0  0  0  0  0  0  0  0  0  0  0  0
    7.5660   -8.5880    1.2090 H   0  0  0  0  0  0  0  0  0  0  0  0
    7.3770  -10.6290    2.5740 H   0  0  0  0  0  0  0  0  0  0  0  0
    7.4210  -11.4480    1.0120 H   0  0  0  0  0  0  0  0  0  0  0  0
    6.1010  -11.7790    2.1500 H   0  0  0  0  0  0  0  0  0  0  0  0
   -0.1480   -5.3350    3.5020 H   0  0  0  0  0  0  0  0  0  0  0  0
    0.8780   -3.1000    3.6690 H   0  0  0  0  0  0  0  0  0  0  0  0
    6.1990   -7.7730   -0.1160 C   0  0  0  0  0  0  0  0  0  0  0  0
    5.3050   -7.9600   -0.9340 O   0  0  0  0  0  0  0  0  0  0  0  0
    6.6420   -6.3760    0.2060 C   0  0  0  0  0  0  0  0  0  0  0  0
    7.4110   -6.0990    1.3340 C   0  0  0  0  0  0  0  0  0  0  0  0
    7.7390   -4.7950    1.6910 C   0  0  0  0  0  0  0  0  0  0  0  0
    7.2760   -3.7140    0.9480 C   0  0  0  0  0  0  0  0  0  0  0  0
    7.6070   -2.3450    1.3830 C   0  0  0  0  0  0  0  0  0  0  0  0
    8.8170   -1.7030    1.0360 C   0  0  0  0  0  0  0  0  0  0  0  0
    9.0140   -0.3600    1.4240 C   0  0  0  0  0  0  0  0  0  0  0  0
    8.0770    0.3170    2.2040 C   0  0  0  0  0  0  0  0  0  0  0  0
    8.3680    1.6250    2.4870 O   0  0  0  0  0  0  0  0  0  0  0  0
    7.2350    2.4730    2.6570 C   0  0  0  0  0  0  0  0  0  0  0  0
    6.9740   -0.3730    2.6880 C   0  0  0  0  0  0  0  0  0  0  0  0
    6.7490   -1.6920    2.2800 C   0  0  0  0  0  0  0  0  0  0  0  0
    9.9630   -2.4690    0.5140 C   0  0  0  0  0  0  0  0  0  0  0  0
    9.9900   -3.0850   -0.7390 C   0  0  0  0  0  0  0  0  0  0  0  0
   11.0490   -3.9300   -1.0860 C   0  0  0  0  0  0  0  0  0  0  0  0
   12.0960   -4.1640   -0.1880 C   0  0  0  0  0  0  0  0  0  0  0  0
   12.1050   -3.5430    1.0650 C   0  0  0  0  0  0  0  0  0  0  0  0
   11.0360   -2.7000    1.3920 C   0  0  0  0  0  0  0  0  0  0  0  0
   13.1660   -3.7970    2.1200 C   0  0  1  0  0  0  0  0  0  0  0  0
   13.0780   -5.1500    2.6370 N   0  0  0  0  0  0  0  0  0  0  0  0
   14.5660   -3.4640    1.6120 C   0  0  0  0  0  0  0  0  0  0  0  0
    6.4940   -3.9820   -0.1890 C   0  0  0  0  0  0  0  0  0  0  0  0
    6.1740   -5.3010   -0.5570 C   0  0  0  0  0  0  0  0  0  0  0  0
    7.7480   -6.8810    1.9900 H   0  0  0  0  0  0  0  0  0  0  0  0
    8.3570   -4.6120    2.5710 H   0  0  0  0  0  0  0  0  0  0  0  0
    9.9310    0.1540    1.1410 H   0  0  0  0  0  0  0  0  0  0  0  0
    7.5980    3.5030    2.7260 H   0  0  0  0  0  0  0  0  0  0  0  0
    6.7040    2.2500    3.5880 H   0  0  0  0  0  0  0  0  0  0  0  0
    6.5580    2.4150    1.7970 H   0  0  0  0  0  0  0  0  0  0  0  0
    6.2530    0.0870    3.3560 H   0  0  0  0  0  0  0  0  0  0  0  0
    5.8840   -2.2130    2.6760 H   0  0  0  0  0  0  0  0  0  0  0  0
    9.1660   -2.9480   -1.4360 H   0  0  0  0  0  0  0  0  0  0  0  0
   11.0410   -4.4330   -2.0490 H   0  0  0  0  0  0  0  0  0  0  0  0
   12.8890   -4.8510   -0.4690 H   0  0  0  0  0  0  0  0  0  0  0  0
   10.9960   -2.2590    2.3900 H   0  0  0  0  0  0  0  0  0  0  0  0
   12.9790   -3.1300    2.9730 H   0  0  0  0  0  0  0  0  0  0  0  0
   13.5740   -5.9030    2.1850 H   0  0  0  0  0  0  0  0  0  0  0  0
   14.8700   -4.1090    0.7810 H   0  0  0  0  0  0  0  0  0  0  0  0
   15.3050   -3.5870    2.4120 H   0  0  0  0  0  0  0  0  0  0  0  0
   14.6140   -2.4240    1.2680 H   0  0  0  0  0  0  0  0  0  0  0  0
    6.1110   -3.1600   -0.7930 H   0  0  0  0  0  0  0  0  0  0  0  0
    5.5350   -5.4830   -1.4190 H   0  0  0  0  0  0  0  0  0  0  0  0
   -4.0660   -6.4960    1.4220 C   0  0  0  0  0  0  0  0  0  0  0  0
   -3.4300   -5.2240    1.2810 O   0  0  0  0  0  0  0  0  0  0  0  0
   -5.1260   -6.3470    1.6370 H   0  0  0  0  0  0  0  0  0  0  0  0
   -3.6070   -7.0150    2.2680 H   0  0  0  0  0  0  0  0  0  0  0  0
   -3.9540   -7.1230    0.5310 H   0  0  0  0  0  0  0  0  0  0  0  0
   11.4190   -8.9810    4.5480 C   0  0  0  0  0  0  0  0  0  0  0  0
   10.9930   -7.5210    4.3500 C   0  0  0  0  0  0  0  0  0  0  0  0
    9.7760   -7.5060    3.4340 C   0  0  0  0  0  0  0  0  0  0  0  0
   10.6550   -6.9170    5.7190 C   0  0  0  0  0  0  0  0  0  0  0  0
   12.1010   -6.8600    3.6790 O   0  0  0  0  0  0  0  0  0  0  0  0
   12.0530   -5.5220    3.4600 C   0  0  0  0  0  0  0  0  0  0  0  0
   11.2050   -4.7610    3.8990 O   0  0  0  0  0  0  0  0  0  0  0  0
   10.6210   -9.5710    5.0120 H   0  0  0  0  0  0  0  0  0  0  0  0
   11.6770   -9.4480    3.5910 H   0  0  0  0  0  0  0  0  0  0  0  0
   12.3100   -9.0430    5.1810 H   0  0  0  0  0  0  0  0  0  0  0  0
   10.0230   -7.8840    2.4350 H   0  0  0  0  0  0  0  0  0  0  0  0
    9.4270   -6.4810    3.3070 H   0  0  0  0  0  0  0  0  0  0  0  0
    8.9460   -8.0960    3.8370 H   0  0  0  0  0  0  0  0  0  0  0  0
   11.5570   -6.7860    6.3230 H   0  0  0  0  0  0  0  0  0  0  0  0
   10.1800   -5.9340    5.6330 H   0  0  0  0  0  0  0  0  0  0  0  0
    9.9480   -7.5500    6.2670 H   0  0  0  0  0  0  0  0  0  0  0  0
  1  3  1  0  0  0  0
  1134  1  0  0  0  0
  1  2  2  0  0  0  0
  3  4  2  0  0  0  0
  4  5  1  0  0  0  0
  4 26  1  0  0  0  0
  5 27  1  0  0  0  0
  5  6  2  0  0  0  0
  6  7  1  0  0  0  0
  7 14  2  0  0  0  0
  8  9  2  0  0  0  0
  7  8  1  0  0  0  0
  9 10  1  0  0  0  0
 10 11  1  0  0  0  0
 10 13  2  0  0  0  0
 11 12  1  0  0  0  0
 12 30  1  0  0  0  0
 13 32  1  0  0  0  0
 13 14  1  0  0  0  0
 14 33  1  0  0  0  0
  8 15  1  0  0  0  0
 15 20  1  0  0  0  0
 15 16  2  0  0  0  0
 16 17  1  0  0  0  0
 17 18  2  0  0  0  0
 18 19  1  0  0  0  0
 19 20  2  0  0  0  0
 19 21  1  0  0  0  0
 20 37  1  0  0  0  0
 21 22  1  0  0  0  0
 21 38  1  0  0  0  0
 22 45  1  0  0  0  0
 23 41  1  0  0  0  0
 21 23  1  0  0  0  0
  6 24  1  0  0  0  0
 24 25  2  0  0  0  0
  3 25  1  0  0  0  0
  9 28  1  0  0  0  0
 12 29  1  0  0  0  0
 12 31  1  0  0  0  0
 16 34  1  0  0  0  0
 17 35  1  0  0  0  0
 18 36  1  0  0  0  0
 22 39  1  0  0  0  0
 23 40  1  0  0  0  0
 23 42  1  0  0  0  0
 24 43  1  0  0  0  0
 25 44  1  0  0  0  0
 45 46  2  0  0  0  0
 45 47  1  0  0  0  0
 47 69  1  0  0  0  0
 47 48  2  0  0  0  0
 48 49  1  0  0  0  0
 49 50  2  0  0  0  0
 50 68  1  0  0  0  0
 50 51  1  0  0  0  0
 51 52  1  0  0  0  0
 52 59  1  0  0  0  0
 52 53  2  0  0  0  0
 53 72  1  0  0  0  0
 53 54  1  0  0  0  0
 54 55  1  0  0  0  0
 55 56  1  0  0  0  0
 56 75  1  0  0  0  0
 57 58  1  0  0  0  0
 54 57  2  0  0  0  0
 51 58  2  0  0  0  0
 59 60  2  0  0  0  0
 60 61  1  0  0  0  0
 60 78  1  0  0  0  0
 61 79  1  0  0  0  0
 62 80  1  0  0  0  0
 61 62  2  0  0  0  0
 62 63  1  0  0  0  0
 63 64  2  0  0  0  0
 59 64  1  0  0  0  0
 65 82  1  0  0  0  0
 65 67  1  0  0  0  0
 63 65  1  0  0  0  0
 65 66  1  0  0  0  0
 66 83  1  0  0  0  0
 67 86  1  0  0  0  0
 67 84  1  0  0  0  0
 68 69  2  0  0  0  0
 68 87  1  0  0  0  0
 69 88  1  0  0  0  0
 48 70  1  0  0  0  0
 49 71  1  0  0  0  0
 56 73  1  0  0  0  0
 56 74  1  0  0  0  0
 57 76  1  0  0  0  0
 58 77  1  0  0  0  0
 64 81  1  0  0  0  0
 67 85  1  0  0  0  0
 89 91  1  0  0  0  0
 66 89  1  0  0  0  0
 89 90  2  0  0  0  0
 91 92  2  0  0  0  0
 92 93  1  0  0  0  0
 92114  1  0  0  0  0
 93115  1  0  0  0  0
 94 95  1  0  0  0  0
 93 94  2  0  0  0  0
 95102  2  0  0  0  0
 95 96  1  0  0  0  0
 96 97  2  0  0  0  0
 97 98  1  0  0  0  0
 98 99  1  0  0  0  0
 98101  2  0  0  0  0
 99100  1  0  0  0  0
100117  1  0  0  0  0
100118  1  0  0  0  0
101120  1  0  0  0  0
102121  1  0  0  0  0
101102  1  0  0  0  0
 96103  1  0  0  0  0
103108  1  0  0  0  0
103104  2  0  0  0  0
104105  1  0  0  0  0
105106  2  0  0  0  0
106107  1  0  0  0  0
107108  2  0  0  0  0
107109  1  0  0  0  0
108125  1  0  0  0  0
109110  1  0  0  0  0
109126  1  0  0  0  0
110143  1  0  0  0  0
109111  1  0  0  0  0
111129  1  0  0  0  0
 94112  1  0  0  0  0
112113  2  0  0  0  0
 91113  1  0  0  0  0
 97116  1  0  0  0  0
100119  1  0  0  0  0
104122  1  0  0  0  0
105123  1  0  0  0  0
106124  1  0  0  0  0
110127  1  0  0  0  0
111128  1  0  0  0  0
111130  1  0  0  0  0
112131  1  0  0  0  0
113132  1  0  0  0  0
133135  1  0  0  0  0
133136  1  0  0  0  0
133134  1  0  0  0  0
133137  1  0  0  0  0
138145  1  0  0  0  0
138147  1  0  0  0  0
138139  1  0  0  0  0
139141  1  0  0  0  0
140150  1  0  0  0  0
139140  1  0  0  0  0
141153  1  0  0  0  0
141151  1  0  0  0  0
139142  1  0  0  0  0
142143  1  0  0  0  0
143144  2  0  0  0  0
138146  1  0  0  0  0
140148  1  0  0  0  0
140149  1  0  0  0  0
141152  1  0  0  0  0
M  END
> <atom.dprop.PartialCharge>
0.644730 -0.543280 -0.134180 -0.075680 -0.130520 -0.000160 -0.080600 0.006800 -0.138040 0.129040 -0.321460 0.113420 -0.210750 -0.086260 -0.037530 -0.104900 -0.129270 -0.106860 -0.099500 -0.106500 0.155170 -0.571640 -0.106760 -0.130520 -0.075680 0.152660 0.142260 0.175040 0.043570 0.043570 0.043570 0.136680 0.138430 0.136310 0.134410 0.138650 0.129540 0.080110 0.316520 0.044080 0.044080 0.044080 0.142260 0.152660 0.675930 -0.613680 -0.137240 -0.091020 -0.125330 -0.010920 -0.069570 0.009060 -0.199040 0.130900 -0.322950 0.111780 -0.152450 -0.089020 -0.041570 -0.110220 -0.127680 -0.112140 -0.106570 -0.108090 0.145340 -0.559250 -0.099930 -0.125330 -0.091020 0.144800 0.140390 0.143110 0.045460 0.045460 0.045460 0.152310 0.140790 0.137370 0.134490 0.135770 0.131010 0.089490 0.303090 0.044400 0.044400 0.044400 0.140390 0.144800 0.675470 -0.596950 -0.137010 -0.089720 -0.128050 -0.006720 -0.075910 0.005020 -0.145390 0.129230 -0.325210 0.113490 -0.203380 -0.082880 -0.041520 -0.106570 -0.130480 -0.108240 -0.101970 -0.107790 0.163610 -0.558130 -0.114480 -0.128050 -0.089720 0.143650 0.138030 0.157650 0.046040 0.046040 0.046040 0.140640 0.141660 0.139080 0.138930 0.140960 0.134930 0.085360 0.327350 0.047890 0.047890 0.047890 0.138030 0.143650 0.125750 -0.429580 0.051660 0.051660 0.051660 -0.114430 0.187420 -0.114430 -0.114430 -0.452400 0.749720 -0.599050 0.051240 0.051240 0.051240 0.051240 0.051240 0.051240 0.051240 0.051240 0.051240

$$$$
