mop_trimer.pdb
  -OEChem-09262413183D

153161  0     1  0  0  0  0  0999 V2000
   -3.3630   -4.7500    0.0250 C   0  0  0  0  0  0  0  0  0  0  0  0
   -3.8440   -5.2870   -0.9660 O   0  0  0  0  0  0  0  0  0  0  0  0
   -2.9110   -3.3460    0.0460 C   0  0  0  0  0  0  0  0  0  0  0  0
   -1.9360   -2.8740    0.9290 C   0  0  0  0  0  0  0  0  0  0  0  0
   -1.6200   -1.5110    0.9460 C   0  0  0  0  0  0  0  0  0  0  0  0
   -2.2690   -0.6070    0.0830 C   0  0  0  0  0  0  0  0  0  0  0  0
   -1.9560    0.8350    0.0780 C   0  0  0  0  0  0  0  0  0  0  0  0
   -0.6760    1.3330   -0.2380 C   0  0  0  0  0  0  0  0  0  0  0  0
   -0.4260    2.7170   -0.1490 C   0  0  0  0  0  0  0  0  0  0  0  0
   -1.4270    3.6180    0.1890 C   0  0  0  0  0  0  0  0  0  0  0  0
   -1.0180    4.9200    0.2340 O   0  0  0  0  0  0  0  0  0  0  0  0
   -2.0180    5.8910    0.5020 C   0  0  0  0  0  0  0  0  0  0  0  0
   -2.7060    3.1380    0.4400 C   0  0  0  0  0  0  0  0  0  0  0  0
   -2.9640    1.7620    0.3930 C   0  0  0  0  0  0  0  0  0  0  0  0
    0.4290    0.4580   -0.6260 C   0  0  0  0  0  0  0  0  0  0  0  0
    0.3530   -0.4060   -1.7340 C   0  0  0  0  0  0  0  0  0  0  0  0
    1.3980   -1.2760   -2.0380 C   0  0  0  0  0  0  0  0  0  0  0  0
    2.5400   -1.2590   -1.2570 C   0  0  0  0  0  0  0  0  0  0  0  0
    2.6340   -0.3740   -0.1660 C   0  0  0  0  0  0  0  0  0  0  0  0
    1.5780    0.4640    0.1520 C   0  0  0  0  0  0  0  0  0  0  0  0
    3.8340   -0.3750    0.7330 C   0  0  1  0  0  0  0  0  0  0  0  0
    3.8510   -1.6890    1.3510 N   0  0  0  0  0  0  0  0  0  0  0  0
    5.0270   -0.0290   -0.1700 C   0  0  0  0  0  0  0  0  0  0  0  0
   -3.2190   -1.1100   -0.8180 C   0  0  0  0  0  0  0  0  0  0  0  0
   -3.5330   -2.4670   -0.8430 C   0  0  0  0  0  0  0  0  0  0  0  0
   -1.4190   -3.5520    1.6010 H   0  0  0  0  0  0  0  0  0  0  0  0
   -0.8520   -1.1580    1.6360 H   0  0  0  0  0  0  0  0  0  0  0  0
    0.5740    3.0990   -0.3490 H   0  0  0  0  0  0  0  0  0  0  0  0
   -1.5390    6.8750    0.4800 H   0  0  0  0  0  0  0  0  0  0  0  0
   -2.4480    5.7490    1.4980 H   0  0  0  0  0  0  0  0  0  0  0  0
   -2.7920    5.8770   -0.2720 H   0  0  0  0  0  0  0  0  0  0  0  0
   -3.5280    3.8010    0.6870 H   0  0  0  0  0  0  0  0  0  0  0  0
   -3.9680    1.4080    0.6180 H   0  0  0  0  0  0  0  0  0  0  0  0
   -0.5390   -0.4300   -2.3480 H   0  0  0  0  0  0  0  0  0  0  0  0
    1.3170   -1.9710   -2.8640 H   0  0  0  0  0  0  0  0  0  0  0  0
    3.3450   -1.9500   -1.4830 H   0  0  0  0  0  0  0  0  0  0  0  0
    1.6390    1.0950    1.0380 H   0  0  0  0  0  0  0  0  0  0  0  0
    3.7540    0.3830    1.5240 H   0  0  0  0  0  0  0  0  0  0  0  0
    4.1520   -2.4070    0.7250 H   0  0  0  0  0  0  0  0  0  0  0  0
    5.2970   -0.8500   -0.8410 H   0  0  0  0  0  0  0  0  0  0  0  0
    5.9190    0.2400    0.3820 H   0  0  0  0  0  0  0  0  0  0  0  0
    4.8010    0.8490   -0.7890 H   0  0  0  0  0  0  0  0  0  0  0  0
   -3.7150   -0.4410   -1.5170 H   0  0  0  0  0  0  0  0  0  0  0  0
   -4.2770   -2.8330   -1.5460 H   0  0  0  0  0  0  0  0  0  0  0  0
    2.8840   -2.0300    2.3080 C   0  0  0  0  0  0  0  0  0  0  0  0
    2.3990   -1.2160    3.0800 O   0  0  0  0  0  0  0  0  0  0  0  0
    2.3810   -3.4540    2.2760 C   0  0  0  0  0  0  0  0  0  0  0  0
    2.9240   -4.4240    1.4280 C   0  0  0  0  0  0  0  0  0  0  0  0
    2.3390   -5.6880    1.3010 C   0  0  0  0  0  0  0  0  0  0  0  0
    1.2100   -6.0450    2.0450 C   0  0  0  0  0  0  0  0  0  0  0  0
    0.5930   -7.3780    1.8630 C   0  0  0  0  0  0  0  0  0  0  0  0
    1.2550   -8.6000    2.1260 C   0  0  0  0  0  0  0  0  0  0  0  0
    0.5980   -9.8270    1.8620 C   0  0  0  0  0  0  0  0  0  0  0  0
   -0.6880   -9.8720    1.3390 C   0  0  0  0  0  0  0  0  0  0  0  0
   -1.2130  -11.1180    1.1340 O   0  0  0  0  0  0  0  0  0  0  0  0
   -2.5990  -11.1710    0.8080 C   0  0  0  0  0  0  0  0  0  0  0  0
   -1.3130   -8.6750    1.0370 C   0  0  0  0  0  0  0  0  0  0  0  0
   -0.6840   -7.4510    1.2980 C   0  0  0  0  0  0  0  0  0  0  0  0
    2.6460   -8.6460    2.5850 C   0  0  0  0  0  0  0  0  0  0  0  0
    3.0620   -8.0260    3.7690 C   0  0  0  0  0  0  0  0  0  0  0  0
    4.4070   -8.0160    4.1270 C   0  0  0  0  0  0  0  0  0  0  0  0
    5.3470   -8.6480    3.3150 C   0  0  0  0  0  0  0  0  0  0  0  0
    4.9530   -9.2850    2.1270 C   0  0  0  0  0  0  0  0  0  0  0  0
    3.6030   -9.2700    1.7750 C   0  0  0  0  0  0  0  0  0  0  0  0
    5.9420   -9.8880    1.1450 C   0  0  1  0  0  0  0  0  0  0  0  0
    6.7980   -8.8240    0.6450 N   0  0  0  0  0  0  0  0  0  0  0  0
    6.7320  -11.0110    1.8180 C   0  0  0  0  0  0  0  0  0  0  0  0
    0.6860   -5.0840    2.9320 C   0  0  0  0  0  0  0  0  0  0  0  0
    1.2640   -3.8080    3.0450 C   0  0  0  0  0  0  0  0  0  0  0  0
    3.7960   -4.2410    0.8170 H   0  0  0  0  0  0  0  0  0  0  0  0
    2.7760   -6.3990    0.5960 H   0  0  0  0  0  0  0  0  0  0  0  0
    1.1150  -10.7670    2.0520 H   0  0  0  0  0  0  0  0  0  0  0  0
   -2.8900  -12.2230    0.7290 H   0  0  0  0  0  0  0  0  0  0  0  0
   -2.7980  -10.7020   -0.1610 H   0  0  0  0  0  0  0  0  0  0  0  0
   -3.2060  -10.7150    1.5980 H   0  0  0  0  0  0  0  0  0  0  0  0
   -2.2880   -8.6650    0.5700 H   0  0  0  0  0  0  0  0  0  0  0  0
   -1.1820   -6.5310    1.0140 H   0  0  0  0  0  0  0  0  0  0  0  0
    2.3380   -7.5130    4.3990 H   0  0  0  0  0  0  0  0  0  0  0  0
    4.7190   -7.4930    5.0270 H   0  0  0  0  0  0  0  0  0  0  0  0
    6.3930   -8.6090    3.6040 H   0  0  0  0  0  0  0  0  0  0  0  0
    3.2950   -9.7040    0.8230 H   0  0  0  0  0  0  0  0  0  0  0  0
    5.4110  -10.3150    0.2860 H   0  0  0  0  0  0  0  0  0  0  0  0
    7.5350   -8.5780    1.2790 H   0  0  0  0  0  0  0  0  0  0  0  0
    7.3320  -10.6470    2.6610 H   0  0  0  0  0  0  0  0  0  0  0  0
    7.4150  -11.4900    1.1110 H   0  0  0  0  0  0  0  0  0  0  0  0
    6.0510  -11.7780    2.2080 H   0  0  0  0  0  0  0  0  0  0  0  0
   -0.1930   -5.3240    3.5300 H   0  0  0  0  0  0  0  0  0  0  0  0
    0.8080   -3.0730    3.7190 H   0  0  0  0  0  0  0  0  0  0  0  0
    6.2190   -7.8210   -0.1300 C   0  0  0  0  0  0  0  0  0  0  0  0
    5.3550   -8.0480   -0.9770 O   0  0  0  0  0  0  0  0  0  0  0  0
    6.6100   -6.4000    0.1700 C   0  0  0  0  0  0  0  0  0  0  0  0
    7.4570   -6.0920    1.2300 C   0  0  0  0  0  0  0  0  0  0  0  0
    7.7540   -4.7780    1.5900 C   0  0  0  0  0  0  0  0  0  0  0  0
    7.2090   -3.7050    0.8970 C   0  0  0  0  0  0  0  0  0  0  0  0
    7.5500   -2.3340    1.3260 C   0  0  0  0  0  0  0  0  0  0  0  0
    8.7840   -1.7110    1.0360 C   0  0  0  0  0  0  0  0  0  0  0  0
    8.9880   -0.3660    1.4300 C   0  0  0  0  0  0  0  0  0  0  0  0
    8.0210    0.3530    2.1310 C   0  0  0  0  0  0  0  0  0  0  0  0
    8.3130    1.6640    2.3780 O   0  0  0  0  0  0  0  0  0  0  0  0
    7.2010    2.5260    2.6080 C   0  0  0  0  0  0  0  0  0  0  0  0
    6.8870   -0.3170    2.5630 C   0  0  0  0  0  0  0  0  0  0  0  0
    6.6790   -1.6510    2.1840 C   0  0  0  0  0  0  0  0  0  0  0  0
    9.9320   -2.4820    0.5360 C   0  0  0  0  0  0  0  0  0  0  0  0
    9.9510   -3.1270   -0.7030 C   0  0  0  0  0  0  0  0  0  0  0  0
   11.0130   -3.9670   -1.0480 C   0  0  0  0  0  0  0  0  0  0  0  0
   12.0740   -4.1670   -0.1610 C   0  0  0  0  0  0  0  0  0  0  0  0
   12.0840   -3.5270    1.0820 C   0  0  0  0  0  0  0  0  0  0  0  0
   11.0140   -2.6860    1.4090 C   0  0  0  0  0  0  0  0  0  0  0  0
   13.1520   -3.7720    2.1300 C   0  0  1  0  0  0  0  0  0  0  0  0
   13.0930   -5.1410    2.6160 N   0  0  0  0  0  0  0  0  0  0  0  0
   14.5310   -3.3650    1.6180 C   0  0  0  0  0  0  0  0  0  0  0  0
    6.3510   -3.9990   -0.1810 C   0  0  0  0  0  0  0  0  0  0  0  0
    6.0480   -5.3330   -0.5380 C   0  0  0  0  0  0  0  0  0  0  0  0
    7.8890   -6.8650    1.8340 H   0  0  0  0  0  0  0  0  0  0  0  0
    8.4290   -4.5890    2.4240 H   0  0  0  0  0  0  0  0  0  0  0  0
    9.9370    0.1200    1.2070 H   0  0  0  0  0  0  0  0  0  0  0  0
    7.5890    3.5400    2.7500 H   0  0  0  0  0  0  0  0  0  0  0  0
    6.6590    2.2560    3.5190 H   0  0  0  0  0  0  0  0  0  0  0  0
    6.5290    2.5450    1.7420 H   0  0  0  0  0  0  0  0  0  0  0  0
    6.1150    0.1680    3.1530 H   0  0  0  0  0  0  0  0  0  0  0  0
    5.8030   -2.1630    2.5700 H   0  0  0  0  0  0  0  0  0  0  0  0
    9.1150   -3.0170   -1.3890 H   0  0  0  0  0  0  0  0  0  0  0  0
   10.9960   -4.4910   -2.0000 H   0  0  0  0  0  0  0  0  0  0  0  0
   12.8750   -4.8470   -0.4390 H   0  0  0  0  0  0  0  0  0  0  0  0
   10.9810   -2.2330    2.4010 H   0  0  0  0  0  0  0  0  0  0  0  0
   12.9480   -3.1320    3.0000 H   0  0  0  0  0  0  0  0  0  0  0  0
   13.5770   -5.8800    2.1300 H   0  0  0  0  0  0  0  0  0  0  0  0
   14.8540   -3.9700    0.7640 H   0  0  0  0  0  0  0  0  0  0  0  0
   15.2860   -3.4660    2.4040 H   0  0  0  0  0  0  0  0  0  0  0  0
   14.5210   -2.3150    1.2970 H   0  0  0  0  0  0  0  0  0  0  0  0
    5.9010   -3.1940   -0.7570 H   0  0  0  0  0  0  0  0  0  0  0  0
    5.3490   -5.5330   -1.3500 H   0  0  0  0  0  0  0  0  0  0  0  0
   -3.9070   -6.5620    1.3910 C   0  0  0  0  0  0  0  0  0  0  0  0
   -3.2930   -5.2780    1.2690 O   0  0  0  0  0  0  0  0  0  0  0  0
   -4.9690   -6.4400    1.6070 H   0  0  0  0  0  0  0  0  0  0  0  0
   -3.4380   -7.0880    2.2270 H   0  0  0  0  0  0  0  0  0  0  0  0
   -3.7840   -7.1640    0.4850 H   0  0  0  0  0  0  0  0  0  0  0  0
   11.3150   -8.9760    4.5130 C   0  0  0  0  0  0  0  0  0  0  0  0
   10.9330   -7.5090    4.2820 C   0  0  0  0  0  0  0  0  0  0  0  0
    9.7250   -7.4870    3.3580 C   0  0  0  0  0  0  0  0  0  0  0  0
   10.5830   -6.8770    5.6370 C   0  0  0  0  0  0  0  0  0  0  0  0
   12.0620   -6.8750    3.6130 O   0  0  0  0  0  0  0  0  0  0  0  0
   12.0400   -5.5330    3.4020 C   0  0  0  0  0  0  0  0  0  0  0  0
   11.1810   -4.7690    3.8220 O   0  0  0  0  0  0  0  0  0  0  0  0
   10.4910   -9.5330    4.9760 H   0  0  0  0  0  0  0  0  0  0  0  0
   11.5710   -9.4700    3.5690 H   0  0  0  0  0  0  0  0  0  0  0  0
   12.1920   -9.0520    5.1640 H   0  0  0  0  0  0  0  0  0  0  0  0
    9.9720   -7.8820    2.3660 H   0  0  0  0  0  0  0  0  0  0  0  0
    9.3970   -6.4570    3.2250 H   0  0  0  0  0  0  0  0  0  0  0  0
    8.8820   -8.0580    3.7620 H   0  0  0  0  0  0  0  0  0  0  0  0
   11.4740   -6.7810    6.2650 H   0  0  0  0  0  0  0  0  0  0  0  0
   10.1520   -5.8760    5.5350 H   0  0  0  0  0  0  0  0  0  0  0  0
    9.8330   -7.4730    6.1690 H   0  0  0  0  0  0  0  0  0  0  0  0
  1  3  1  0  0  0  0
  1134  1  0  0  0  0
  1  2  2  0  0  0  0
  3  4  2  0  0  0  0
  4  5  1  0  0  0  0
  4 26  1  0  0  0  0
  5 27  1  0  0  0  0
  5  6  2  0  0  0  0
  6  7  1  0  0  0  0
  7 14  2  0  0  0  0
  8  9  2  0  0  0  0
  7  8  1  0  0  0  0
  9 10  1  0  0  0  0
 10 11  1  0  0  0  0
 10 13  2  0  0  0  0
 11 12  1  0  0  0  0
 12 30  1  0  0  0  0
 13 32  1  0  0  0  0
 13 14  1  0  0  0  0
 14 33  1  0  0  0  0
  8 15  1  0  0  0  0
 15 20  1  0  0  0  0
 15 16  2  0  0  0  0
 16 17  1  0  0  0  0
 17 18  2  0  0  0  0
 18 19  1  0  0  0  0
 19 20  2  0  0  0  0
 19 21  1  0  0  0  0
 20 37  1  0  0  0  0
 21 22  1  0  0  0  0
 21 38  1  0  0  0  0
 22 45  1  0  0  0  0
 23 41  1  0  0  0  0
 21 23  1  0  0  0  0
  6 24  1  0  0  0  0
 24 25  2  0  0  0  0
  3 25  1  0  0  0  0
  9 28  1  0  0  0  0
 12 29  1  0  0  0  0
 12 31  1  0  0  0  0
 16 34  1  0  0  0  0
 17 35  1  0  0  0  0
 18 36  1  0  0  0  0
 22 39  1  0  0  0  0
 23 40  1  0  0  0  0
 23 42  1  0  0  0  0
 24 43  1  0  0  0  0
 25 44  1  0  0  0  0
 45 46  2  0  0  0  0
 45 47  1  0  0  0  0
 47 69  1  0  0  0  0
 47 48  2  0  0  0  0
 48 49  1  0  0  0  0
 49 50  2  0  0  0  0
 50 68  1  0  0  0  0
 50 51  1  0  0  0  0
 51 52  1  0  0  0  0
 52 59  1  0  0  0  0
 53 72  1  0  0  0  0
 52 53  2  0  0  0  0
 53 54  1  0  0  0  0
 54 55  1  0  0  0  0
 55 56  1  0  0  0  0
 56 75  1  0  0  0  0
 57 58  1  0  0  0  0
 54 57  2  0  0  0  0
 51 58  2  0  0  0  0
 59 60  2  0  0  0  0
 60 61  1  0  0  0  0
 60 78  1  0  0  0  0
 61 79  1  0  0  0  0
 62 80  1  0  0  0  0
 61 62  2  0  0  0  0
 62 63  1  0  0  0  0
 63 64  2  0  0  0  0
 59 64  1  0  0  0  0
 65 82  1  0  0  0  0
 65 67  1  0  0  0  0
 63 65  1  0  0  0  0
 65 66  1  0  0  0  0
 66 83  1  0  0  0  0
 67 86  1  0  0  0  0
 67 84  1  0  0  0  0
 68 69  2  0  0  0  0
 68 87  1  0  0  0  0
 69 88  1  0  0  0  0
 48 70  1  0  0  0  0
 49 71  1  0  0  0  0
 56 73  1  0  0  0  0
 56 74  1  0  0  0  0
 57 76  1  0  0  0  0
 58 77  1  0  0  0  0
 64 81  1  0  0  0  0
 67 85  1  0  0  0  0
 89 91  1  0  0  0  0
 66 89  1  0  0  0  0
 89 90  2  0  0  0  0
 91 92  2  0  0  0  0
 92 93  1  0  0  0  0
 92114  1  0  0  0  0
 93115  1  0  0  0  0
 94 95  1  0  0  0  0
 93 94  2  0  0  0  0
 95102  2  0  0  0  0
 95 96  1  0  0  0  0
 96 97  2  0  0  0  0
 97 98  1  0  0  0  0
 98 99  1  0  0  0  0
 98101  2  0  0  0  0
 99100  1  0  0  0  0
100117  1  0  0  0  0
100118  1  0  0  0  0
101120  1  0  0  0  0
101102  1  0  0  0  0
102121  1  0  0  0  0
 96103  1  0  0  0  0
103108  1  0  0  0  0
103104  2  0  0  0  0
104105  1  0  0  0  0
105106  2  0  0  0  0
106107  1  0  0  0  0
107108  2  0  0  0  0
107109  1  0  0  0  0
108125  1  0  0  0  0
109110  1  0  0  0  0
109126  1  0  0  0  0
110143  1  0  0  0  0
109111  1  0  0  0  0
111129  1  0  0  0  0
 94112  1  0  0  0  0
112113  2  0  0  0  0
 91113  1  0  0  0  0
 97116  1  0  0  0  0
100119  1  0  0  0  0
104122  1  0  0  0  0
105123  1  0  0  0  0
106124  1  0  0  0  0
110127  1  0  0  0  0
111128  1  0  0  0  0
111130  1  0  0  0  0
112131  1  0  0  0  0
113132  1  0  0  0  0
133135  1  0  0  0  0
133136  1  0  0  0  0
133134  1  0  0  0  0
133137  1  0  0  0  0
138145  1  0  0  0  0
138147  1  0  0  0  0
138139  1  0  0  0  0
139141  1  0  0  0  0
140150  1  0  0  0  0
139140  1  0  0  0  0
141153  1  0  0  0  0
141151  1  0  0  0  0
139142  1  0  0  0  0
142143  1  0  0  0  0
143144  2  0  0  0  0
138146  1  0  0  0  0
140148  1  0  0  0  0
140149  1  0  0  0  0
141152  1  0  0  0  0
M  END
> <atom.dprop.PartialCharge>
0.644730 -0.543280 -0.134180 -0.075680 -0.130520 -0.000160 -0.080600 0.006800 -0.138040 0.129040 -0.321460 0.113420 -0.210750 -0.086260 -0.037530 -0.104900 -0.129270 -0.106860 -0.099500 -0.106500 0.155170 -0.571640 -0.106760 -0.130520 -0.075680 0.152660 0.142260 0.175040 0.043570 0.043570 0.043570 0.136680 0.138430 0.136310 0.134410 0.138650 0.129540 0.080110 0.316520 0.044080 0.044080 0.044080 0.142260 0.152660 0.675930 -0.613680 -0.137240 -0.091020 -0.125330 -0.010920 -0.069570 0.009060 -0.199040 0.130900 -0.322950 0.111780 -0.152450 -0.089020 -0.041570 -0.110220 -0.127680 -0.112140 -0.106570 -0.108090 0.145340 -0.559250 -0.099930 -0.125330 -0.091020 0.144800 0.140390 0.143110 0.045460 0.045460 0.045460 0.152310 0.140790 0.137370 0.134490 0.135770 0.131010 0.089490 0.303090 0.044400 0.044400 0.044400 0.140390 0.144800 0.675470 -0.596950 -0.137010 -0.089720 -0.128050 -0.006720 -0.075910 0.005020 -0.145390 0.129230 -0.325210 0.113490 -0.203380 -0.082880 -0.041520 -0.106570 -0.130480 -0.108240 -0.101970 -0.107790 0.163610 -0.558130 -0.114480 -0.128050 -0.089720 0.143650 0.138030 0.157650 0.046040 0.046040 0.046040 0.140640 0.141660 0.139080 0.138930 0.140960 0.134930 0.085360 0.327350 0.047890 0.047890 0.047890 0.138030 0.143650 0.125750 -0.429580 0.051660 0.051660 0.051660 -0.114430 0.187420 -0.114430 -0.114430 -0.452400 0.749720 -0.599050 0.051240 0.051240 0.051240 0.051240 0.051240 0.051240 0.051240 0.051240 0.051240

$$$$
