mop_trimer.pdb
 OpenBabel09242414593D

153161  0  0  1  0  0  0  0  0999 V2000
   -3.4050   -4.7190   -0.0010 C   0  0  0  0  0  0  0  0  0  0  0  0
   -3.8390   -5.2620   -1.0040 O   0  0  0  0  0  0  0  0  0  0  0  0
   -2.9590   -3.3090    0.0360 C   0  0  0  0  0  0  0  0  0  0  0  0
   -1.9950   -2.8430    0.9350 C   0  0  0  0  0  0  0  0  0  0  0  0
   -1.6660   -1.4820    0.9540 C   0  0  0  0  0  0  0  0  0  0  0  0
   -2.2950   -0.5740    0.0810 C   0  0  0  0  0  0  0  0  0  0  0  0
   -1.9680    0.8650    0.0800 C   0  0  0  0  0  0  0  0  0  0  0  0
   -0.6890    1.3600   -0.2550 C   0  0  0  0  0  0  0  0  0  0  0  0
   -0.4390    2.7440   -0.1680 C   0  0  0  0  0  0  0  0  0  0  0  0
   -1.4310    3.6470    0.2000 C   0  0  0  0  0  0  0  0  0  0  0  0
   -1.0190    4.9480    0.2510 O   0  0  0  0  0  0  0  0  0  0  0  0
   -2.0140    5.9210    0.5330 C   0  0  0  0  0  0  0  0  0  0  0  0
   -2.7040    3.1680    0.4820 C   0  0  0  0  0  0  0  0  0  0  0  0
   -2.9660    1.7930    0.4290 C   0  0  0  0  0  0  0  0  0  0  0  0
    0.4120    0.4840   -0.6570 C   0  0  0  0  0  0  0  0  0  0  0  0
    0.3310   -0.3630   -1.7770 C   0  0  0  0  0  0  0  0  0  0  0  0
    1.3690   -1.2310   -2.0980 C   0  0  0  0  0  0  0  0  0  0  0  0
    2.5150   -1.2360   -1.3180 C   0  0  0  0  0  0  0  0  0  0  0  0
    2.6270   -0.3760   -0.2160 C   0  0  0  0  0  0  0  0  0  0  0  0
    1.5700    0.4680    0.1150 C   0  0  0  0  0  0  0  0  0  0  0  0
    3.8300   -0.4020    0.6880 C   0  0  1  0  0  0  0  0  0  0  0  0
    3.8540   -1.7250    1.2870 N   0  0  0  0  0  0  0  0  0  0  0  0
    5.0430   -0.0570   -0.1820 C   0  0  0  0  0  0  0  0  0  0  0  0
   -3.2420   -1.0690   -0.8290 C   0  0  0  0  0  0  0  0  0  0  0  0
   -3.5650   -2.4240   -0.8590 C   0  0  0  0  0  0  0  0  0  0  0  0
   -1.4950   -3.5250    1.6160 H   0  0  0  0  0  0  0  0  0  0  0  0
   -0.9040   -1.1340    1.6520 H   0  0  0  0  0  0  0  0  0  0  0  0
    0.5570    3.1280   -0.3910 H   0  0  0  0  0  0  0  0  0  0  0  0
   -1.5280    6.9010    0.5420 H   0  0  0  0  0  0  0  0  0  0  0  0
   -2.4560    5.7600    1.5220 H   0  0  0  0  0  0  0  0  0  0  0  0
   -2.7790    5.9300   -0.2490 H   0  0  0  0  0  0  0  0  0  0  0  0
   -3.5160    3.8300    0.7630 H   0  0  0  0  0  0  0  0  0  0  0  0
   -3.9650    1.4400    0.6770 H   0  0  0  0  0  0  0  0  0  0  0  0
   -0.5660   -0.3650   -2.3930 H   0  0  0  0  0  0  0  0  0  0  0  0
    1.2800   -1.9100   -2.9390 H   0  0  0  0  0  0  0  0  0  0  0  0
    3.3140   -1.9310   -1.5610 H   0  0  0  0  0  0  0  0  0  0  0  0
    1.6370    1.0890    1.0050 H   0  0  0  0  0  0  0  0  0  0  0  0
    3.7450    0.3430    1.4880 H   0  0  0  0  0  0  0  0  0  0  0  0
    4.1500   -2.4400    0.6470 H   0  0  0  0  0  0  0  0  0  0  0  0
    5.3360   -0.8810   -0.8390 H   0  0  0  0  0  0  0  0  0  0  0  0
    5.9130    0.2100    0.4090 H   0  0  0  0  0  0  0  0  0  0  0  0
    4.8390    0.8180   -0.8130 H   0  0  0  0  0  0  0  0  0  0  0  0
   -3.7230   -0.3960   -1.5340 H   0  0  0  0  0  0  0  0  0  0  0  0
   -4.3000   -2.7850   -1.5760 H   0  0  0  0  0  0  0  0  0  0  0  0
    2.9130   -2.0690    2.2490 C   0  0  0  0  0  0  0  0  0  0  0  0
    2.4400   -1.2530    3.0440 O   0  0  0  0  0  0  0  0  0  0  0  0
    2.3950   -3.4800    2.2270 C   0  0  0  0  0  0  0  0  0  0  0  0
    2.9150   -4.4530    1.3690 C   0  0  0  0  0  0  0  0  0  0  0  0
    2.3210   -5.7120    1.2590 C   0  0  0  0  0  0  0  0  0  0  0  0
    1.2030   -6.0570    2.0240 C   0  0  0  0  0  0  0  0  0  0  0  0
    0.5730   -7.3850    1.8610 C   0  0  0  0  0  0  0  0  0  0  0  0
    1.2330   -8.6040    2.1460 C   0  0  0  0  0  0  0  0  0  0  0  0
    0.5680   -9.8270    1.8970 C   0  0  0  0  0  0  0  0  0  0  0  0
   -0.7150   -9.8710    1.3600 C   0  0  0  0  0  0  0  0  0  0  0  0
   -1.2280  -11.1220    1.1610 O   0  0  0  0  0  0  0  0  0  0  0  0
   -2.6040  -11.1940    0.8040 C   0  0  0  0  0  0  0  0  0  0  0  0
   -1.3410   -8.6760    1.0420 C   0  0  0  0  0  0  0  0  0  0  0  0
   -0.7080   -7.4530    1.2970 C   0  0  0  0  0  0  0  0  0  0  0  0
    2.6280   -8.6540    2.6020 C   0  0  0  0  0  0  0  0  0  0  0  0
    3.0520   -8.0390    3.7860 C   0  0  0  0  0  0  0  0  0  0  0  0
    4.4010   -8.0290    4.1360 C   0  0  0  0  0  0  0  0  0  0  0  0
    5.3400   -8.6530    3.3140 C   0  0  0  0  0  0  0  0  0  0  0  0
    4.9400   -9.2870    2.1270 C   0  0  0  0  0  0  0  0  0  0  0  0
    3.5850   -9.2760    1.7870 C   0  0  0  0  0  0  0  0  0  0  0  0
    5.9290   -9.8820    1.1380 C   0  0  1  0  0  0  0  0  0  0  0  0
    6.7830   -8.8170    0.6320 N   0  0  0  0  0  0  0  0  0  0  0  0
    6.7410  -10.9970    1.8000 C   0  0  0  0  0  0  0  0  0  0  0  0
    0.7010   -5.0950    2.9170 C   0  0  0  0  0  0  0  0  0  0  0  0
    1.2880   -3.8210    3.0170 C   0  0  0  0  0  0  0  0  0  0  0  0
    3.7800   -4.2770    0.7480 H   0  0  0  0  0  0  0  0  0  0  0  0
    2.7460   -6.4300    0.5560 H   0  0  0  0  0  0  0  0  0  0  0  0
    1.0750  -10.7680    2.1060 H   0  0  0  0  0  0  0  0  0  0  0  0
   -2.8820  -12.2510    0.7470 H   0  0  0  0  0  0  0  0  0  0  0  0
   -2.7830  -10.7510   -0.1810 H   0  0  0  0  0  0  0  0  0  0  0  0
   -3.2340  -10.7240    1.5680 H   0  0  0  0  0  0  0  0  0  0  0  0
   -2.3130   -8.6640    0.5670 H   0  0  0  0  0  0  0  0  0  0  0  0
   -1.2060   -6.5330    1.0070 H   0  0  0  0  0  0  0  0  0  0  0  0
    2.3330   -7.5310    4.4250 H   0  0  0  0  0  0  0  0  0  0  0  0
    4.7190   -7.5130    5.0380 H   0  0  0  0  0  0  0  0  0  0  0  0
    6.3880   -8.6090    3.5940 H   0  0  0  0  0  0  0  0  0  0  0  0
    3.2720   -9.7110    0.8370 H   0  0  0  0  0  0  0  0  0  0  0  0
    5.3940  -10.3110    0.2820 H   0  0  0  0  0  0  0  0  0  0  0  0
    7.5540   -8.5950    1.2340 H   0  0  0  0  0  0  0  0  0  0  0  0
    7.3480  -10.6260    2.6330 H   0  0  0  0  0  0  0  0  0  0  0  0
    7.4230  -11.4630    1.0820 H   0  0  0  0  0  0  0  0  0  0  0  0
    6.0790  -11.7760    2.1970 H   0  0  0  0  0  0  0  0  0  0  0  0
   -0.1640   -5.3270    3.5360 H   0  0  0  0  0  0  0  0  0  0  0  0
    0.8580   -3.0880    3.6970 H   0  0  0  0  0  0  0  0  0  0  0  0
    6.2080   -7.8010   -0.1290 C   0  0  0  0  0  0  0  0  0  0  0  0
    5.3200   -8.0060   -0.9500 O   0  0  0  0  0  0  0  0  0  0  0  0
    6.6380   -6.3940    0.1710 C   0  0  0  0  0  0  0  0  0  0  0  0
    7.4710   -6.1040    1.2490 C   0  0  0  0  0  0  0  0  0  0  0  0
    7.7800   -4.7930    1.6120 C   0  0  0  0  0  0  0  0  0  0  0  0
    7.2520   -3.7170    0.9110 C   0  0  0  0  0  0  0  0  0  0  0  0
    7.5820   -2.3490    1.3460 C   0  0  0  0  0  0  0  0  0  0  0  0
    8.7990   -1.7080    1.0220 C   0  0  0  0  0  0  0  0  0  0  0  0
    8.9910   -0.3640    1.4130 C   0  0  0  0  0  0  0  0  0  0  0  0
    8.0420    0.3260    2.1680 C   0  0  0  0  0  0  0  0  0  0  0  0
    8.3320    1.6330    2.4400 O   0  0  0  0  0  0  0  0  0  0  0  0
    7.2060    2.4850    2.6400 C   0  0  0  0  0  0  0  0  0  0  0  0
    6.9310   -0.3630    2.6330 C   0  0  0  0  0  0  0  0  0  0  0  0
    6.7180   -1.6880    2.2330 C   0  0  0  0  0  0  0  0  0  0  0  0
    9.9500   -2.4710    0.5100 C   0  0  0  0  0  0  0  0  0  0  0  0
    9.9750   -3.1020   -0.7360 C   0  0  0  0  0  0  0  0  0  0  0  0
   11.0340   -3.9480   -1.0770 C   0  0  0  0  0  0  0  0  0  0  0  0
   12.0850   -4.1680   -0.1810 C   0  0  0  0  0  0  0  0  0  0  0  0
   12.0940   -3.5340    1.0650 C   0  0  0  0  0  0  0  0  0  0  0  0
   11.0260   -2.6870    1.3870 C   0  0  0  0  0  0  0  0  0  0  0  0
   13.1550   -3.7860    2.1210 C   0  0  1  0  0  0  0  0  0  0  0  0
   13.0730   -5.1440    2.6300 N   0  0  0  0  0  0  0  0  0  0  0  0
   14.5510   -3.4320    1.6120 C   0  0  0  0  0  0  0  0  0  0  0  0
    6.4180   -3.9950   -0.1890 C   0  0  0  0  0  0  0  0  0  0  0  0
    6.1090   -5.3210   -0.5520 C   0  0  0  0  0  0  0  0  0  0  0  0
    7.8790   -6.8840    1.8640 H   0  0  0  0  0  0  0  0  0  0  0  0
    8.4430   -4.6090    2.4560 H   0  0  0  0  0  0  0  0  0  0  0  0
    9.9200    0.1420    1.1550 H   0  0  0  0  0  0  0  0  0  0  0  0
    7.5790    3.5100    2.7430 H   0  0  0  0  0  0  0  0  0  0  0  0
    6.6720    2.2380    3.5610 H   0  0  0  0  0  0  0  0  0  0  0  0
    6.5320    2.4610    1.7760 H   0  0  0  0  0  0  0  0  0  0  0  0
    6.1920    0.1010    3.2770 H   0  0  0  0  0  0  0  0  0  0  0  0
    5.8510   -2.2120    2.6270 H   0  0  0  0  0  0  0  0  0  0  0  0
    9.1470   -2.9790   -1.4300 H   0  0  0  0  0  0  0  0  0  0  0  0
   11.0230   -4.4630   -2.0350 H   0  0  0  0  0  0  0  0  0  0  0  0
   12.8790   -4.8570   -0.4570 H   0  0  0  0  0  0  0  0  0  0  0  0
   10.9900   -2.2380    2.3810 H   0  0  0  0  0  0  0  0  0  0  0  0
   12.9630   -3.1260    2.9780 H   0  0  0  0  0  0  0  0  0  0  0  0
   13.5800   -5.8920    2.1830 H   0  0  0  0  0  0  0  0  0  0  0  0
   14.8580   -4.0620    0.7710 H   0  0  0  0  0  0  0  0  0  0  0  0
   15.2950   -3.5520    2.4070 H   0  0  0  0  0  0  0  0  0  0  0  0
   14.5830   -2.3880    1.2780 H   0  0  0  0  0  0  0  0  0  0  0  0
    5.9910   -3.1820   -0.7700 H   0  0  0  0  0  0  0  0  0  0  0  0
    5.4270   -5.5120   -1.3800 H   0  0  0  0  0  0  0  0  0  0  0  0
   -4.0210   -6.5100    1.3700 C   0  0  0  0  0  0  0  0  0  0  0  0
   -3.3830   -5.2370    1.2510 O   0  0  0  0  0  0  0  0  0  0  0  0
   -5.0870   -6.3650    1.5560 H   0  0  0  0  0  0  0  0  0  0  0  0
   -3.5850   -7.0320    2.2250 H   0  0  0  0  0  0  0  0  0  0  0  0
   -3.8830   -7.1290    0.4780 H   0  0  0  0  0  0  0  0  0  0  0  0
   11.3710   -8.9690    4.5540 C   0  0  0  0  0  0  0  0  0  0  0  0
   10.9580   -7.5100    4.3330 C   0  0  0  0  0  0  0  0  0  0  0  0
    9.7480   -7.5030    3.4100 C   0  0  0  0  0  0  0  0  0  0  0  0
   10.6070   -6.8870    5.6920 C   0  0  0  0  0  0  0  0  0  0  0  0
   12.0750   -6.8590    3.6640 O   0  0  0  0  0  0  0  0  0  0  0  0
   12.0300   -5.5210    3.4330 C   0  0  0  0  0  0  0  0  0  0  0  0
   11.1700   -4.7600    3.8470 O   0  0  0  0  0  0  0  0  0  0  0  0
   10.5610   -9.5470    5.0160 H   0  0  0  0  0  0  0  0  0  0  0  0
   11.6350   -9.4510    3.6060 H   0  0  0  0  0  0  0  0  0  0  0  0
   12.2520   -9.0310    5.2000 H   0  0  0  0  0  0  0  0  0  0  0  0
   10.0020   -7.8880    2.4160 H   0  0  0  0  0  0  0  0  0  0  0  0
    9.4000   -6.4780    3.2800 H   0  0  0  0  0  0  0  0  0  0  0  0
    8.9150   -8.0900    3.8120 H   0  0  0  0  0  0  0  0  0  0  0  0
   11.4970   -6.7890    6.3190 H   0  0  0  0  0  0  0  0  0  0  0  0
   10.1710   -5.8880    5.5940 H   0  0  0  0  0  0  0  0  0  0  0  0
    9.8620   -7.4920    6.2210 H   0  0  0  0  0  0  0  0  0  0  0  0
  1  3  1  0  0  0  0
  1134  1  0  0  0  0
  2  1  2  0  0  0  0
  3  4  1  0  0  0  0
  4  5  2  0  0  0  0
  4 26  1  0  0  0  0
  5 27  1  0  0  0  0
  6  5  1  0  0  0  0
  7  6  1  0  0  0  0
  7 14  1  0  0  0  0
  8  9  1  0  0  0  0
  8  7  2  0  0  0  0
  9 10  2  0  0  0  0
 10 11  1  0  0  0  0
 10 13  1  0  0  0  0
 11 12  1  0  0  0  0
 12 29  1  0  0  0  0
 12 30  1  0  0  0  0
 13 32  1  0  0  0  0
 14 13  2  0  0  0  0
 14 33  1  0  0  0  0
 15  8  1  0  0  0  0
 15 20  1  0  0  0  0
 16 15  2  0  0  0  0
 17 16  1  0  0  0  0
 17 18  2  0  0  0  0
 18 19  1  0  0  0  0
 19 20  2  0  0  0  0
 19 21  1  0  0  0  0
 20 37  1  0  0  0  0
 21 22  1  0  0  0  0
 21 38  1  1  0  0  0
 22 45  1  0  0  0  0
 23 41  1  0  0  0  0
 23 21  1  0  0  0  0
 24  6  2  0  0  0  0
 25 24  1  0  0  0  0
 25  3  2  0  0  0  0
 28  9  1  0  0  0  0
 31 12  1  0  0  0  0
 34 16  1  0  0  0  0
 35 17  1  0  0  0  0
 36 18  1  0  0  0  0
 39 22  1  0  0  0  0
 40 23  1  0  0  0  0
 42 23  1  0  0  0  0
 43 24  1  0  0  0  0
 44 25  1  0  0  0  0
 45 46  2  0  0  0  0
 47 45  1  0  0  0  0
 47 69  1  0  0  0  0
 48 47  2  0  0  0  0
 49 48  1  0  0  0  0
 49 50  2  0  0  0  0
 50 68  1  0  0  0  0
 51 50  1  0  0  0  0
 51 52  1  0  0  0  0
 52 59  1  0  0  0  0
 53 72  1  0  0  0  0
 53 52  2  0  0  0  0
 54 53  1  0  0  0  0
 55 54  1  0  0  0  0
 56 55  1  0  0  0  0
 56 75  1  0  0  0  0
 57 58  1  0  0  0  0
 57 54  2  0  0  0  0
 58 51  2  0  0  0  0
 59 60  1  0  0  0  0
 60 61  2  0  0  0  0
 60 78  1  0  0  0  0
 61 79  1  0  0  0  0
 62 80  1  0  0  0  0
 62 61  1  0  0  0  0
 63 62  2  0  0  0  0
 64 63  1  0  0  0  0
 64 59  2  0  0  0  0
 65 82  1  6  0  0  0
 65 67  1  0  0  0  0
 65 63  1  0  0  0  0
 66 65  1  0  0  0  0
 66 83  1  0  0  0  0
 67 86  1  0  0  0  0
 67 84  1  0  0  0  0
 68 69  2  0  0  0  0
 68 87  1  0  0  0  0
 69 88  1  0  0  0  0
 70 48  1  0  0  0  0
 71 49  1  0  0  0  0
 73 56  1  0  0  0  0
 74 56  1  0  0  0  0
 76 57  1  0  0  0  0
 77 58  1  0  0  0  0
 81 64  1  0  0  0  0
 85 67  1  0  0  0  0
 89 91  1  0  0  0  0
 89 66  1  0  0  0  0
 90 89  2  0  0  0  0
 91 92  1  0  0  0  0
 92 93  2  0  0  0  0
 92114  1  0  0  0  0
 93115  1  0  0  0  0
 94 95  1  0  0  0  0
 94 93  1  0  0  0  0
 95102  1  0  0  0  0
 96 95  2  0  0  0  0
 96 97  1  0  0  0  0
 97 98  2  0  0  0  0
 98 99  1  0  0  0  0
 98101  1  0  0  0  0
 99100  1  0  0  0  0
100117  1  0  0  0  0
100118  1  0  0  0  0
101120  1  0  0  0  0
102121  1  0  0  0  0
102101  2  0  0  0  0
103 96  1  0  0  0  0
103108  1  0  0  0  0
104103  2  0  0  0  0
105104  1  0  0  0  0
105106  2  0  0  0  0
106107  1  0  0  0  0
107108  2  0  0  0  0
107109  1  0  0  0  0
108125  1  0  0  0  0
109110  1  0  0  0  0
109126  1  1  0  0  0
110143  1  0  0  0  0
111109  1  0  0  0  0
111129  1  0  0  0  0
112 94  2  0  0  0  0
113112  1  0  0  0  0
113 91  2  0  0  0  0
116 97  1  0  0  0  0
119100  1  0  0  0  0
122104  1  0  0  0  0
123105  1  0  0  0  0
124106  1  0  0  0  0
127110  1  0  0  0  0
128111  1  0  0  0  0
130111  1  0  0  0  0
131112  1  0  0  0  0
132113  1  0  0  0  0
133135  1  0  0  0  0
133136  1  0  0  0  0
134133  1  0  0  0  0
137133  1  0  0  0  0
138145  1  0  0  0  0
138147  1  0  0  0  0
139138  1  0  0  0  0
139141  1  0  0  0  0
140150  1  0  0  0  0
140139  1  0  0  0  0
141153  1  0  0  0  0
141151  1  0  0  0  0
142139  1  0  0  0  0
143142  1  0  0  0  0
143144  2  0  0  0  0
146138  1  0  0  0  0
148140  1  0  0  0  0
149140  1  0  0  0  0
152141  1  0  0  0  0
M  END
