mop_trimer.pdb
     RDKit          3D

153161  0  0  0  0  0  0  0  0999 V2000
   -3.3390   -4.7480    0.0550 C   0  0  0  0  0  0  0  0  0  0  0  0
   -3.8150   -5.2720   -0.9420 O   0  0  0  0  0  0  0  0  0  0  0  0
   -2.8830   -3.3510    0.0920 C   0  0  0  0  0  0  0  0  0  0  0  0
   -1.9050   -2.8800    0.9710 C   0  0  0  0  0  0  0  0  0  0  0  0
   -1.5710   -1.5220    0.9780 C   0  0  0  0  0  0  0  0  0  0  0  0
   -2.2160   -0.6200    0.1080 C   0  0  0  0  0  0  0  0  0  0  0  0
   -1.9050    0.8200    0.0950 C   0  0  0  0  0  0  0  0  0  0  0  0
   -0.6290    1.3220   -0.2220 C   0  0  0  0  0  0  0  0  0  0  0  0
   -0.3810    2.7050   -0.1310 C   0  0  0  0  0  0  0  0  0  0  0  0
   -1.3870    3.6030    0.1960 C   0  0  0  0  0  0  0  0  0  0  0  0
   -0.9870    4.9070    0.2410 O   0  0  0  0  0  0  0  0  0  0  0  0
   -2.0020    5.8660    0.4970 C   0  0  0  0  0  0  0  0  0  0  0  0
   -2.6660    3.1180    0.4360 C   0  0  0  0  0  0  0  0  0  0  0  0
   -2.9180    1.7430    0.3980 C   0  0  0  0  0  0  0  0  0  0  0  0
    0.4760    0.4530   -0.6100 C   0  0  0  0  0  0  0  0  0  0  0  0
    0.4100   -0.4110   -1.7160 C   0  0  0  0  0  0  0  0  0  0  0  0
    1.4550   -1.2750   -2.0250 C   0  0  0  0  0  0  0  0  0  0  0  0
    2.5920   -1.2460   -1.2350 C   0  0  0  0  0  0  0  0  0  0  0  0
    2.6740   -0.3630   -0.1470 C   0  0  0  0  0  0  0  0  0  0  0  0
    1.6150    0.4660    0.1750 C   0  0  0  0  0  0  0  0  0  0  0  0
    3.8610   -0.3620    0.7660 C   0  0  1  0  0  0  0  0  0  0  0  0
    3.8460   -1.6650    1.3890 N   0  0  0  0  0  0  0  0  0  0  0  0
    5.0480   -0.0200   -0.1490 C   0  0  0  0  0  0  0  0  0  0  0  0
   -3.1700   -1.1190   -0.7880 C   0  0  0  0  0  0  0  0  0  0  0  0
   -3.4980   -2.4700   -0.8030 C   0  0  0  0  0  0  0  0  0  0  0  0
   -1.3940   -3.5600    1.6490 H   0  0  0  0  0  0  0  0  0  0  0  0
   -0.8000   -1.1690    1.6640 H   0  0  0  0  0  0  0  0  0  0  0  0
    0.6210    3.0890   -0.3230 H   0  0  0  0  0  0  0  0  0  0  0  0
   -1.5340    6.8550    0.4940 H   0  0  0  0  0  0  0  0  0  0  0  0
   -2.4510    5.7100    1.4830 H   0  0  0  0  0  0  0  0  0  0  0  0
   -2.7590    5.8490   -0.2930 H   0  0  0  0  0  0  0  0  0  0  0  0
   -3.4940    3.7760    0.6720 H   0  0  0  0  0  0  0  0  0  0  0  0
   -3.9220    1.3850    0.6140 H   0  0  0  0  0  0  0  0  0  0  0  0
   -0.4840   -0.4420   -2.3340 H   0  0  0  0  0  0  0  0  0  0  0  0
    1.3820   -1.9730   -2.8450 H   0  0  0  0  0  0  0  0  0  0  0  0
    3.4020   -1.9320   -1.4600 H   0  0  0  0  0  0  0  0  0  0  0  0
    1.6670    1.0870    1.0690 H   0  0  0  0  0  0  0  0  0  0  0  0
    3.7810    0.3970    1.5540 H   0  0  0  0  0  0  0  0  0  0  0  0
    4.1290   -2.4000    0.7580 H   0  0  0  0  0  0  0  0  0  0  0  0
    5.3230   -0.8480   -0.8100 H   0  0  0  0  0  0  0  0  0  0  0  0
    5.9420    0.2750    0.3840 H   0  0  0  0  0  0  0  0  0  0  0  0
    4.8090    0.8470   -0.7790 H   0  0  0  0  0  0  0  0  0  0  0  0
   -3.6620   -0.4500   -1.4930 H   0  0  0  0  0  0  0  0  0  0  0  0
   -4.2450   -2.8340   -1.5020 H   0  0  0  0  0  0  0  0  0  0  0  0
    2.8650   -2.0100    2.3370 C   0  0  0  0  0  0  0  0  0  0  0  0
    2.3750   -1.1830    3.1150 O   0  0  0  0  0  0  0  0  0  0  0  0
    2.3490   -3.4280    2.3020 C   0  0  0  0  0  0  0  0  0  0  0  0
    2.8920   -4.3940    1.4440 C   0  0  0  0  0  0  0  0  0  0  0  0
    2.3100   -5.6570    1.3010 C   0  0  0  0  0  0  0  0  0  0  0  0
    1.1820   -6.0270    2.0360 C   0  0  0  0  0  0  0  0  0  0  0  0
    0.5730   -7.3640    1.8330 C   0  0  0  0  0  0  0  0  0  0  0  0
    1.2320   -8.5880    2.0980 C   0  0  0  0  0  0  0  0  0  0  0  0
    0.5760   -9.8180    1.8360 C   0  0  0  0  0  0  0  0  0  0  0  0
   -0.7060   -9.8660    1.3060 C   0  0  0  0  0  0  0  0  0  0  0  0
   -1.2450  -11.1070    1.1160 O   0  0  0  0  0  0  0  0  0  0  0  0
   -2.6310  -11.1510    0.7830 C   0  0  0  0  0  0  0  0  0  0  0  0
   -1.3150   -8.6680    0.9790 C   0  0  0  0  0  0  0  0  0  0  0  0
   -0.6870   -7.4420    1.2400 C   0  0  0  0  0  0  0  0  0  0  0  0
    2.6200   -8.6310    2.5590 C   0  0  0  0  0  0  0  0  0  0  0  0
    3.0300   -8.0040    3.7410 C   0  0  0  0  0  0  0  0  0  0  0  0
    4.3720   -7.9880    4.1040 C   0  0  0  0  0  0  0  0  0  0  0  0
    5.3150   -8.6280    3.3020 C   0  0  0  0  0  0  0  0  0  0  0  0
    4.9260   -9.2720    2.1160 C   0  0  0  0  0  0  0  0  0  0  0  0
    3.5800   -9.2540    1.7530 C   0  0  0  0  0  0  0  0  0  0  0  0
    5.9220   -9.8960    1.1550 C   0  0  1  0  0  0  0  0  0  0  0  0
    6.7950   -8.8450    0.6560 N   0  0  0  0  0  0  0  0  0  0  0  0
    6.6850  -11.0190    1.8590 C   0  0  0  0  0  0  0  0  0  0  0  0
    0.6560   -5.0760    2.9310 C   0  0  0  0  0  0  0  0  0  0  0  0
    1.2320   -3.7920    3.0600 C   0  0  0  0  0  0  0  0  0  0  0  0
    3.7640   -4.2110    0.8410 H   0  0  0  0  0  0  0  0  0  0  0  0
    2.7510   -6.3550    0.5890 H   0  0  0  0  0  0  0  0  0  0  0  0
    1.0910  -10.7580    2.0340 H   0  0  0  0  0  0  0  0  0  0  0  0
   -2.9320  -12.2000    0.7070 H   0  0  0  0  0  0  0  0  0  0  0  0
   -2.8220  -10.6860   -0.1910 H   0  0  0  0  0  0  0  0  0  0  0  0
   -3.2410  -10.6830    1.5650 H   0  0  0  0  0  0  0  0  0  0  0  0
   -2.2800   -8.6620    0.4920 H   0  0  0  0  0  0  0  0  0  0  0  0
   -1.1750   -6.5230    0.9370 H   0  0  0  0  0  0  0  0  0  0  0  0
    2.3020   -7.4890    4.3650 H   0  0  0  0  0  0  0  0  0  0  0  0
    4.6800   -7.4590    5.0020 H   0  0  0  0  0  0  0  0  0  0  0  0
    6.3590   -8.5910    3.5980 H   0  0  0  0  0  0  0  0  0  0  0  0
    3.2790   -9.6860    0.7970 H   0  0  0  0  0  0  0  0  0  0  0  0
    5.3990  -10.3290    0.2930 H   0  0  0  0  0  0  0  0  0  0  0  0
    7.5150   -8.5920    1.3070 H   0  0  0  0  0  0  0  0  0  0  0  0
    7.2920  -10.6470    2.6920 H   0  0  0  0  0  0  0  0  0  0  0  0
    7.3570  -11.5340    1.1670 H   0  0  0  0  0  0  0  0  0  0  0  0
    5.9860  -11.7590    2.2690 H   0  0  0  0  0  0  0  0  0  0  0  0
   -0.2260   -5.3210    3.5220 H   0  0  0  0  0  0  0  0  0  0  0  0
    0.7740   -3.0700    3.7400 H   0  0  0  0  0  0  0  0  0  0  0  0
    6.2270   -7.8460   -0.1400 C   0  0  0  0  0  0  0  0  0  0  0  0
    5.3840   -8.0860   -0.9990 O   0  0  0  0  0  0  0  0  0  0  0  0
    6.6020   -6.4210    0.1640 C   0  0  0  0  0  0  0  0  0  0  0  0
    7.4470   -6.1040    1.2200 C   0  0  0  0  0  0  0  0  0  0  0  0
    7.7410   -4.7850    1.5710 C   0  0  0  0  0  0  0  0  0  0  0  0
    7.1920   -3.7180    0.8730 C   0  0  0  0  0  0  0  0  0  0  0  0
    7.5380   -2.3450    1.3020 C   0  0  0  0  0  0  0  0  0  0  0  0
    8.7830   -1.7290    1.0530 C   0  0  0  0  0  0  0  0  0  0  0  0
    8.9900   -0.3890    1.4670 C   0  0  0  0  0  0  0  0  0  0  0  0
    8.0070    0.3400    2.1330 C   0  0  0  0  0  0  0  0  0  0  0  0
    8.2980    1.6520    2.3770 O   0  0  0  0  0  0  0  0  0  0  0  0
    7.1880    2.5200    2.5920 C   0  0  0  0  0  0  0  0  0  0  0  0
    6.8570   -0.3230    2.5270 C   0  0  0  0  0  0  0  0  0  0  0  0
    6.6560   -1.6570    2.1430 C   0  0  0  0  0  0  0  0  0  0  0  0
    9.9310   -2.4990    0.5570 C   0  0  0  0  0  0  0  0  0  0  0  0
    9.9410   -3.1510   -0.6790 C   0  0  0  0  0  0  0  0  0  0  0  0
   11.0020   -3.9880   -1.0300 C   0  0  0  0  0  0  0  0  0  0  0  0
   12.0720   -4.1750   -0.1530 C   0  0  0  0  0  0  0  0  0  0  0  0
   12.0890   -3.5270    1.0860 C   0  0  0  0  0  0  0  0  0  0  0  0
   11.0190   -2.6910    1.4220 C   0  0  0  0  0  0  0  0  0  0  0  0
   13.1650   -3.7710    2.1260 C   0  0  1  0  0  0  0  0  0  0  0  0
   13.1060   -5.1430    2.6050 N   0  0  0  0  0  0  0  0  0  0  0  0
   14.5330   -3.3490    1.5980 C   0  0  0  0  0  0  0  0  0  0  0  0
    6.3230   -4.0230   -0.1940 C   0  0  0  0  0  0  0  0  0  0  0  0
    6.0240   -5.3610   -0.5410 C   0  0  0  0  0  0  0  0  0  0  0  0
    7.8830   -6.8700    1.8290 H   0  0  0  0  0  0  0  0  0  0  0  0
    8.4200   -4.5880    2.4010 H   0  0  0  0  0  0  0  0  0  0  0  0
    9.9520    0.0870    1.2820 H   0  0  0  0  0  0  0  0  0  0  0  0
    7.5810    3.5320    2.7370 H   0  0  0  0  0  0  0  0  0  0  0  0
    6.6360    2.2550    3.4990 H   0  0  0  0  0  0  0  0  0  0  0  0
    6.5240    2.5440    1.7200 H   0  0  0  0  0  0  0  0  0  0  0  0
    6.0630    0.1700    3.0780 H   0  0  0  0  0  0  0  0  0  0  0  0
    5.7730   -2.1700    2.5080 H   0  0  0  0  0  0  0  0  0  0  0  0
    9.0970   -3.0500   -1.3550 H   0  0  0  0  0  0  0  0  0  0  0  0
   10.9760   -4.5190   -1.9770 H   0  0  0  0  0  0  0  0  0  0  0  0
   12.8730   -4.8540   -0.4330 H   0  0  0  0  0  0  0  0  0  0  0  0
   10.9910   -2.2380    2.4150 H   0  0  0  0  0  0  0  0  0  0  0  0
   12.9660   -3.1370    3.0010 H   0  0  0  0  0  0  0  0  0  0  0  0
   13.5840   -5.8810    2.1090 H   0  0  0  0  0  0  0  0  0  0  0  0
   14.8440   -3.9340    0.7270 H   0  0  0  0  0  0  0  0  0  0  0  0
   15.3030   -3.4530    2.3680 H   0  0  0  0  0  0  0  0  0  0  0  0
   14.5070   -2.2930    1.2940 H   0  0  0  0  0  0  0  0  0  0  0  0
    5.8570   -3.2250   -0.7690 H   0  0  0  0  0  0  0  0  0  0  0  0
    5.3180   -5.5720   -1.3440 H   0  0  0  0  0  0  0  0  0  0  0  0
   -3.8550   -6.5940    1.3750 C   0  0  0  0  0  0  0  0  0  0  0  0
   -3.2630   -5.3010    1.2950 O   0  0  0  0  0  0  0  0  0  0  0  0
   -4.9200   -6.5010    1.5800 H   0  0  0  0  0  0  0  0  0  0  0  0
   -3.3840   -7.1390    2.1980 H   0  0  0  0  0  0  0  0  0  0  0  0
   -3.7120   -7.1640    0.4500 H   0  0  0  0  0  0  0  0  0  0  0  0
   11.2930   -8.9570    4.5280 C   0  0  0  0  0  0  0  0  0  0  0  0
   10.9190   -7.4930    4.2730 C   0  0  0  0  0  0  0  0  0  0  0  0
    9.7100   -7.4820    3.3490 C   0  0  0  0  0  0  0  0  0  0  0  0
   10.5670   -6.8380    5.6170 C   0  0  0  0  0  0  0  0  0  0  0  0
   12.0520   -6.8750    3.5940 O   0  0  0  0  0  0  0  0  0  0  0  0
   12.0390   -5.5320    3.3760 C   0  0  0  0  0  0  0  0  0  0  0  0
   11.1770   -4.7650    3.7820 O   0  0  0  0  0  0  0  0  0  0  0  0
   10.4710   -9.4980    5.0130 H   0  0  0  0  0  0  0  0  0  0  0  0
   11.5320   -9.4730    3.5910 H   0  0  0  0  0  0  0  0  0  0  0  0
   12.1770   -9.0260    5.1680 H   0  0  0  0  0  0  0  0  0  0  0  0
    9.9620   -7.8630    2.3520 H   0  0  0  0  0  0  0  0  0  0  0  0
    9.3650   -6.4560    3.2290 H   0  0  0  0  0  0  0  0  0  0  0  0
    8.8760   -8.0700    3.7480 H   0  0  0  0  0  0  0  0  0  0  0  0
   11.4510   -6.7580    6.2550 H   0  0  0  0  0  0  0  0  0  0  0  0
   10.1620   -5.8280    5.5010 H   0  0  0  0  0  0  0  0  0  0  0  0
    9.7940   -7.4090    6.1430 H   0  0  0  0  0  0  0  0  0  0  0  0
  1  3  1  0
  1134  1  0
  2  1  2  0
  3  4  2  0
  4  5  1  0
  4 26  1  0
  5 27  1  0
  6  5  2  0
  7  6  1  0
  7 14  2  0
  8  9  2  0
  8  7  1  0
  9 10  1  0
 10 11  1  0
 10 13  2  0
 11 12  1  0
 12 30  1  0
 13 32  1  0
 14 13  1  0
 14 33  1  0
 15  8  1  0
 15 20  1  0
 16 15  2  0
 17 16  1  0
 17 18  2  0
 18 19  1  0
 19 20  2  0
 19 21  1  0
 20 37  1  0
 21 22  1  0
 21 38  1  1
 22 45  1  0
 23 41  1  0
 23 21  1  0
 24  6  1  0
 25 24  2  0
 25  3  1  0
 28  9  1  0
 29 12  1  0
 31 12  1  0
 34 16  1  0
 35 17  1  0
 36 18  1  0
 39 22  1  0
 40 23  1  0
 42 23  1  0
 43 24  1  0
 44 25  1  0
 45 46  2  0
 47 45  1  0
 47 69  1  0
 48 47  2  0
 49 48  1  0
 49 50  2  0
 50 68  1  0
 51 50  1  0
 51 52  1  0
 52 59  1  0
 53 72  1  0
 53 52  2  0
 54 53  1  0
 55 54  1  0
 56 55  1  0
 56 75  1  0
 57 58  1  0
 57 54  2  0
 58 51  2  0
 59 60  2  0
 60 61  1  0
 60 78  1  0
 61 79  1  0
 62 80  1  0
 62 61  2  0
 63 62  1  0
 64 63  2  0
 64 59  1  0
 65 82  1  6
 65 67  1  0
 65 63  1  0
 66 65  1  0
 66 83  1  0
 67 86  1  0
 67 84  1  0
 68 69  2  0
 68 87  1  0
 69 88  1  0
 70 48  1  0
 71 49  1  0
 73 56  1  0
 74 56  1  0
 76 57  1  0
 77 58  1  0
 81 64  1  0
 85 67  1  0
 89 91  1  0
 89 66  1  0
 90 89  2  0
 91 92  2  0
 92 93  1  0
 92114  1  0
 93115  1  0
 94 95  1  0
 94 93  2  0
 95102  2  0
 96 95  1  0
 96 97  2  0
 97 98  1  0
 98 99  1  0
 98101  2  0
 99100  1  0
100117  1  0
100118  1  0
101120  1  0
102121  1  0
102101  1  0
103 96  1  0
103108  1  0
104103  2  0
105104  1  0
105106  2  0
106107  1  0
107108  2  0
107109  1  0
108125  1  0
109110  1  0
109126  1  1
110143  1  0
111109  1  0
111129  1  0
112 94  1  0
113112  2  0
113 91  1  0
116 97  1  0
119100  1  0
122104  1  0
123105  1  0
124106  1  0
127110  1  0
128111  1  0
130111  1  0
131112  1  0
132113  1  0
133135  1  0
133136  1  0
134133  1  0
137133  1  0
138145  1  0
138147  1  0
139138  1  0
139141  1  0
140150  1  0
140139  1  0
141153  1  0
141151  1  0
142139  1  0
143142  1  0
143144  2  0
146138  1  0
148140  1  0
149140  1  0
152141  1  0
M  END
>  <atom.dprop.PartialCharge>  (1) 
0.64572614379084969 -0.5459738562091504 -0.13757385620915033 -0.071973856209150311 -0.13847385620915034 0.006026143790849682 -0.078973856209150317 0.013026143790849681 -0.15797385620915033
0.13512614379084967 -0.32787385620915033 0.10072614379084968 -0.20297385620915034 -0.080973856209150319 -0.046973856209150316 -0.10297385620915031 -0.12997385620915033 -0.10797385620915032
-0.11227385620915031 -0.11597385620915032 0.14102614379084966 -0.55987385620915031 -0.10007385620915031 -0.13847385620915034 -0.071973856209150311 0.15602614379084967 0.14452614379084966
0.15302614379084967 0.055059143790849682 0.055059143790849682 0.055059143790849682 0.14302614379084966 0.13802614379084968 0.14202614379084966 0.13702614379084968 0.14102614379084966
0.13302614379084968 0.095726143790849677 0.30652614379084969 0.043726143790849686 0.043726143790849686 0.043726143790849686 0.14452614379084966 0.15602614379084967 0.67272614379084961
-0.60507385620915033 -0.14257385620915033 -0.091973856209150315 -0.12747385620915033 -0.010973856209150317 -0.07097385620915031 0.017026143790849681 -0.20097385620915034
0.12912614379084966 -0.32487385620915032 0.11272614379084968 -0.15397385620915033 -0.08697385620915031 -0.051973856209150314 -0.10097385620915032 -0.13297385620915034 -0.10097385620915032
-0.12827385620915033 -0.11497385620915032 0.16002614379084967 -0.55287385620915031 -0.09907385620915031 -0.12747385620915033 -0.091973856209150315 0.14652614379084966 0.14252614379084966
0.14202614379084966 0.045393143790849681 0.045393143790849681 0.045393143790849681 0.15302614379084967 0.14302614379084966 0.14202614379084966 0.14002614379084968 0.16102614379084967
0.13102614379084968 0.049726143790849685 0.30652614379084969 0.052393143790849681 0.052393143790849681 0.052393143790849681 0.14252614379084966 0.14652614379084966 0.67972614379084961
-0.62307385620915035 -0.15057385620915034 -0.092973856209150316 -0.12797385620915033 -0.0069738562091503182 -0.074973856209150314 0.015026143790849681 -0.19797385620915034
0.13312614379084967 -0.32587385620915033 0.11072614379084969 -0.15397385620915033 -0.088973856209150312 -0.047973856209150317 -0.099973856209150322 -0.12997385620915033
-0.11797385620915031 -0.12627385620915033 -0.10197385620915031 0.13802614379084968 -0.51687385620915038 -0.094073856209150319 -0.12797385620915033 -0.092973856209150316 0.14552614379084966
0.14402614379084966 0.14902614379084966 0.048059143790849683 0.048059143790849683 0.048059143790849683 0.15302614379084967 0.14002614379084968 0.14402614379084966 0.13702614379084968
0.13002614379084967 0.14402614379084966 0.092726143790849688 0.30952614379084969 0.046393143790849682 0.046393143790849682 0.046393143790849682 0.14402614379084966 0.14552614379084966
0.12772614379084968 -0.43987385620915032 0.050726143790849686 0.050726143790849686 0.050726143790849686 -0.11374085620915031 0.18682614379084966 -0.11374085620915031 -0.11374085620915031
-0.45087385620915033 0.74012614379084962 -0.59297385620915033 0.051726143790849687 0.051726143790849687 0.051726143790849687 0.051726143790849687 0.051726143790849687 0.051726143790849687
0.051726143790849687 0.051726143790849687 0.051726143790849687

$$$$
