pmp_tetramer.pdb
 OpenBabel10072411063D

197208  0  0  1  0  0  0  0  0999 V2000
    2.1460    4.9000   -0.8110 C   0  0  0  0  0  0  0  0  0  0  0  0
    0.9620    4.1340   -0.9920 O   0  0  0  0  0  0  0  0  0  0  0  0
    1.0060    2.8180   -0.6210 C   0  0  0  0  0  0  0  0  0  0  0  0
    2.1000    2.1600   -0.0570 C   0  0  0  0  0  0  0  0  0  0  0  0
    2.0290    0.7990    0.2900 C   0  0  0  0  0  0  0  0  0  0  0  0
    3.1830    0.1010    0.8870 C   0  0  0  0  0  0  0  0  0  0  0  0
    4.4800    0.2800    0.3770 C   0  0  0  0  0  0  0  0  0  0  0  0
    5.5730   -0.3980    0.9230 C   0  0  0  0  0  0  0  0  0  0  0  0
    5.3890   -1.2820    1.9900 C   0  0  0  0  0  0  0  0  0  0  0  0
    6.5540   -2.0880    2.4380 C   0  0  0  0  0  0  0  0  0  0  0  0
    7.6780   -1.9690    1.9770 O   0  0  0  0  0  0  0  0  0  0  0  0
    4.1070   -1.4640    2.5190 C   0  0  0  0  0  0  0  0  0  0  0  0
    3.0190   -0.7780    1.9720 C   0  0  0  0  0  0  0  0  0  0  0  0
    0.8200    0.1190    0.0560 C   0  0  0  0  0  0  0  0  0  0  0  0
   -0.3000    0.7550   -0.4980 C   0  0  0  0  0  0  0  0  0  0  0  0
   -1.5700    0.0280   -0.6740 C   0  0  0  0  0  0  0  0  0  0  0  0
   -1.6160   -1.2640   -1.2260 C   0  0  0  0  0  0  0  0  0  0  0  0
   -2.8300   -1.9500   -1.3790 C   0  0  0  0  0  0  0  0  0  0  0  0
   -4.0320   -1.3680   -0.9620 C   0  0  0  0  0  0  0  0  0  0  0  0
   -5.3660   -2.0630   -1.2090 C   0  0  1  0  0  0  0  0  0  0  0  0
   -6.1280   -2.3640    0.0770 C   0  0  0  0  0  0  0  0  0  0  0  0
   -6.1210   -1.3280   -2.2290 N   0  0  0  0  0  0  0  0  0  0  0  0
   -3.9800   -0.0970   -0.3700 C   0  0  0  0  0  0  0  0  0  0  0  0
   -2.7760    0.5980   -0.2540 C   0  0  0  0  0  0  0  0  0  0  0  0
   -0.1800    2.1130   -0.8350 C   0  0  0  0  0  0  0  0  0  0  0  0
    2.9670    4.5040   -1.4180 H   0  0  0  0  0  0  0  0  0  0  0  0
    1.9400    5.9190   -1.1540 H   0  0  0  0  0  0  0  0  0  0  0  0
    2.4260    4.9560    0.2470 H   0  0  0  0  0  0  0  0  0  0  0  0
    3.0230    2.6960    0.1410 H   0  0  0  0  0  0  0  0  0  0  0  0
    4.6500    0.9290   -0.4800 H   0  0  0  0  0  0  0  0  0  0  0  0
    6.5600   -0.2590    0.4880 H   0  0  0  0  0  0  0  0  0  0  0  0
    3.9300   -2.1560    3.3390 H   0  0  0  0  0  0  0  0  0  0  0  0
    2.0330   -0.9480    2.4020 H   0  0  0  0  0  0  0  0  0  0  0  0
    0.7430   -0.9330    0.3270 H   0  0  0  0  0  0  0  0  0  0  0  0
   -0.7000   -1.7490   -1.5580 H   0  0  0  0  0  0  0  0  0  0  0  0
   -2.8190   -2.9410   -1.8280 H   0  0  0  0  0  0  0  0  0  0  0  0
   -5.1600   -3.0330   -1.6840 H   0  0  0  0  0  0  0  0  0  0  0  0
   -5.5160   -2.9810    0.7440 H   0  0  0  0  0  0  0  0  0  0  0  0
   -6.3960   -1.4620    0.6340 H   0  0  0  0  0  0  0  0  0  0  0  0
   -7.0510   -2.9110   -0.1410 H   0  0  0  0  0  0  0  0  0  0  0  0
   -5.7040   -1.4350   -3.1380 H   0  0  0  0  0  0  0  0  0  0  0  0
   -4.8860    0.3880   -0.0120 H   0  0  0  0  0  0  0  0  0  0  0  0
   -2.7960    1.5940    0.1850 H   0  0  0  0  0  0  0  0  0  0  0  0
   -1.0250    2.6430   -1.2710 H   0  0  0  0  0  0  0  0  0  0  0  0
   -6.8340    7.9960   -5.5430 C   0  0  0  0  0  0  0  0  0  0  0  0
   -5.4730    7.9270   -5.9520 O   0  0  0  0  0  0  0  0  0  0  0  0
   -4.7880    6.7830   -5.6430 C   0  0  0  0  0  0  0  0  0  0  0  0
   -5.2970    5.6760   -4.9710 C   0  0  0  0  0  0  0  0  0  0  0  0
   -4.5000    4.5480   -4.7080 C   0  0  0  0  0  0  0  0  0  0  0  0
   -5.0470    3.3690   -4.0210 C   0  0  0  0  0  0  0  0  0  0  0  0
   -5.8680    3.4950   -2.8920 C   0  0  0  0  0  0  0  0  0  0  0  0
   -6.4080    2.3680   -2.2610 C   0  0  0  0  0  0  0  0  0  0  0  0
   -6.1310    1.0820   -2.7340 C   0  0  0  0  0  0  0  0  0  0  0  0
   -6.6380   -0.0820   -1.9290 C   0  0  0  0  0  0  0  0  0  0  0  0
   -7.3880    0.1170   -0.9810 O   0  0  0  0  0  0  0  0  0  0  0  0
   -5.2870    0.9400   -3.8420 C   0  0  0  0  0  0  0  0  0  0  0  0
   -4.7630    2.0700   -4.4780 C   0  0  0  0  0  0  0  0  0  0  0  0
   -3.1580    4.5710   -5.1440 C   0  0  0  0  0  0  0  0  0  0  0  0
   -2.6220    5.6640   -5.8390 C   0  0  0  0  0  0  0  0  0  0  0  0
   -1.2390    5.6210   -6.3460 C   0  0  0  0  0  0  0  0  0  0  0  0
   -0.1720    5.1680   -5.5510 C   0  0  0  0  0  0  0  0  0  0  0  0
    1.1390    5.1270   -6.0430 C   0  0  0  0  0  0  0  0  0  0  0  0
    1.4180    5.5180   -7.3580 C   0  0  0  0  0  0  0  0  0  0  0  0
    2.8510    5.5680   -7.8720 C   0  0  1  0  0  0  0  0  0  0  0  0
    3.0840    4.6630   -9.0790 C   0  0  0  0  0  0  0  0  0  0  0  0
    3.2580    6.9630   -8.0530 N   0  0  0  0  0  0  0  0  0  0  0  0
    0.3450    5.9290   -8.1660 C   0  0  0  0  0  0  0  0  0  0  0  0
   -0.9520    6.0040   -7.6630 C   0  0  0  0  0  0  0  0  0  0  0  0
   -3.4570    6.7670   -6.0750 C   0  0  0  0  0  0  0  0  0  0  0  0
   -6.9200    7.9450   -4.4530 H   0  0  0  0  0  0  0  0  0  0  0  0
   -7.2300    8.9640   -5.8620 H   0  0  0  0  0  0  0  0  0  0  0  0
   -7.4340    7.2160   -6.0240 H   0  0  0  0  0  0  0  0  0  0  0  0
   -6.3360    5.6580   -4.6460 H   0  0  0  0  0  0  0  0  0  0  0  0
   -6.0770    4.4760   -2.4710 H   0  0  0  0  0  0  0  0  0  0  0  0
   -7.0150    2.5060   -1.3670 H   0  0  0  0  0  0  0  0  0  0  0  0
   -4.9870   -0.0230   -4.2300 H   0  0  0  0  0  0  0  0  0  0  0  0
   -4.1160    1.9210   -5.3420 H   0  0  0  0  0  0  0  0  0  0  0  0
   -2.5290    3.7060   -4.9560 H   0  0  0  0  0  0  0  0  0  0  0  0
   -0.3520    4.8510   -4.5250 H   0  0  0  0  0  0  0  0  0  0  0  0
    1.9350    4.7880   -5.3840 H   0  0  0  0  0  0  0  0  0  0  0  0
    3.5110    5.2020   -7.0740 H   0  0  0  0  0  0  0  0  0  0  0  0
    2.8060    3.6280   -8.8360 H   0  0  0  0  0  0  0  0  0  0  0  0
    2.4920    4.9550   -9.9490 H   0  0  0  0  0  0  0  0  0  0  0  0
    4.1370    4.6740   -9.3690 H   0  0  0  0  0  0  0  0  0  0  0  0
    3.3520    7.4240   -7.1670 H   0  0  0  0  0  0  0  0  0  0  0  0
    0.5110    6.2280   -9.1990 H   0  0  0  0  0  0  0  0  0  0  0  0
   -1.7430    6.3550   -8.3230 H   0  0  0  0  0  0  0  0  0  0  0  0
   -3.0760    7.6360   -6.6080 H   0  0  0  0  0  0  0  0  0  0  0  0
   -1.0940   15.6320  -10.1270 C   0  0  0  0  0  0  0  0  0  0  0  0
   -1.8020   15.5410   -8.8970 O   0  0  0  0  0  0  0  0  0  0  0  0
   -1.6440   14.3920   -8.1710 C   0  0  0  0  0  0  0  0  0  0  0  0
   -0.8370   13.3080   -8.5180 C   0  0  0  0  0  0  0  0  0  0  0  0
   -0.7470   12.1770   -7.6890 C   0  0  0  0  0  0  0  0  0  0  0  0
    0.1370   11.0480   -8.0340 C   0  0  0  0  0  0  0  0  0  0  0  0
    0.2100   10.5460   -9.3410 C   0  0  0  0  0  0  0  0  0  0  0  0
    1.0810    9.4990   -9.6650 C   0  0  0  0  0  0  0  0  0  0  0  0
    1.8930    8.9140   -8.6850 C   0  0  0  0  0  0  0  0  0  0  0  0
    2.7010    7.7140   -9.0770 C   0  0  0  0  0  0  0  0  0  0  0  0
    2.7530    7.3740  -10.2550 O   0  0  0  0  0  0  0  0  0  0  0  0
    1.8050    9.3860   -7.3730 C   0  0  0  0  0  0  0  0  0  0  0  0
    0.9440   10.4430   -7.0580 C   0  0  0  0  0  0  0  0  0  0  0  0
   -1.4930   12.1670   -6.4980 C   0  0  0  0  0  0  0  0  0  0  0  0
   -2.3050   13.2450   -6.1160 C   0  0  0  0  0  0  0  0  0  0  0  0
   -3.0240   13.2230   -4.8300 C   0  0  0  0  0  0  0  0  0  0  0  0
   -3.7330   12.0900   -4.3940 C   0  0  0  0  0  0  0  0  0  0  0  0
   -4.4080   12.0800   -3.1660 C   0  0  0  0  0  0  0  0  0  0  0  0
   -4.3740   13.1990   -2.3270 C   0  0  0  0  0  0  0  0  0  0  0  0
   -5.1830   13.2360   -1.0350 C   0  0  1  0  0  0  0  0  0  0  0  0
   -4.3110   13.4170    0.2040 C   0  0  0  0  0  0  0  0  0  0  0  0
   -6.2860   14.1900   -1.1670 N   0  0  0  0  0  0  0  0  0  0  0  0
   -3.6270   14.3120   -2.7410 C   0  0  0  0  0  0  0  0  0  0  0  0
   -2.9880   14.3340   -3.9800 C   0  0  0  0  0  0  0  0  0  0  0  0
   -2.3670   14.3520   -6.9770 C   0  0  0  0  0  0  0  0  0  0  0  0
   -1.4170   14.8520  -10.8250 H   0  0  0  0  0  0  0  0  0  0  0  0
   -1.3300   16.6000  -10.5780 H   0  0  0  0  0  0  0  0  0  0  0  0
   -0.0110   15.5950   -9.9670 H   0  0  0  0  0  0  0  0  0  0  0  0
   -0.2430   13.3320   -9.4260 H   0  0  0  0  0  0  0  0  0  0  0  0
   -0.4300   10.9520  -10.1230 H   0  0  0  0  0  0  0  0  0  0  0  0
    1.0910    9.1200  -10.6860 H   0  0  0  0  0  0  0  0  0  0  0  0
    2.3660    8.9530   -6.5550 H   0  0  0  0  0  0  0  0  0  0  0  0
    0.9130   10.7890   -6.0260 H   0  0  0  0  0  0  0  0  0  0  0  0
   -1.4260   11.3040   -5.8360 H   0  0  0  0  0  0  0  0  0  0  0  0
   -3.7770   11.1990   -5.0180 H   0  0  0  0  0  0  0  0  0  0  0  0
   -4.9580   11.1850   -2.8790 H   0  0  0  0  0  0  0  0  0  0  0  0
   -5.6850   12.2660   -0.9230 H   0  0  0  0  0  0  0  0  0  0  0  0
   -3.5530   12.6270    0.2560 H   0  0  0  0  0  0  0  0  0  0  0  0
   -3.7770   14.3720    0.2130 H   0  0  0  0  0  0  0  0  0  0  0  0
   -4.9190   13.3650    1.1130 H   0  0  0  0  0  0  0  0  0  0  0  0
   -6.9850   13.8490   -1.8040 H   0  0  0  0  0  0  0  0  0  0  0  0
   -3.5520   15.1970   -2.1120 H   0  0  0  0  0  0  0  0  0  0  0  0
   -2.4470   15.2350   -4.2660 H   0  0  0  0  0  0  0  0  0  0  0  0
   -2.9870   15.2090   -6.7190 H   0  0  0  0  0  0  0  0  0  0  0  0
   -8.2290   22.4740   -6.2370 C   0  0  0  0  0  0  0  0  0  0  0  0
   -8.1710   21.7180   -7.4410 O   0  0  0  0  0  0  0  0  0  0  0  0
   -7.7740   20.4140   -7.3350 C   0  0  0  0  0  0  0  0  0  0  0  0
   -7.4870   19.7380   -6.1510 C   0  0  0  0  0  0  0  0  0  0  0  0
   -7.1000   18.3860   -6.1630 C   0  0  0  0  0  0  0  0  0  0  0  0
   -6.8350   17.6610   -4.9110 C   0  0  0  0  0  0  0  0  0  0  0  0
   -6.0700   18.2320   -3.8850 C   0  0  0  0  0  0  0  0  0  0  0  0
   -5.8540   17.5480   -2.6850 C   0  0  0  0  0  0  0  0  0  0  0  0
   -6.3880   16.2670   -2.4850 C   0  0  0  0  0  0  0  0  0  0  0  0
   -6.0120   15.5470   -1.2240 C   0  0  0  0  0  0  0  0  0  0  0  0
   -5.3810   16.1370   -0.3540 O   0  0  0  0  0  0  0  0  0  0  0  0
   -7.1190   15.6740   -3.5190 C   0  0  0  0  0  0  0  0  0  0  0  0
   -7.3450   16.3690   -4.7100 C   0  0  0  0  0  0  0  0  0  0  0  0
   -7.0060   17.7310   -7.4000 C   0  0  0  0  0  0  0  0  0  0  0  0
   -7.2930   18.3800   -8.6060 C   0  0  0  0  0  0  0  0  0  0  0  0
   -7.2500   17.6400   -9.8760 C   0  0  0  0  0  0  0  0  0  0  0  0
   -6.2000   16.7640  -10.2080 C   0  0  0  0  0  0  0  0  0  0  0  0
   -6.1850   16.0640  -11.4260 C   0  0  0  0  0  0  0  0  0  0  0  0
   -7.2360   16.2090  -12.3330 C   0  0  0  0  0  0  0  0  0  0  0  0
   -7.2270   15.5620  -13.7090 C   0  0  1  0  0  0  0  0  0  0  0  0
   -8.3340   14.5180  -13.8770 C   0  0  0  0  0  0  0  0  0  0  0  0
   -7.1680   16.5990  -14.7450 N   0  0  0  0  0  0  0  0  0  0  0  0
   -8.2980   17.0390  -11.9670 C   0  0  0  0  0  0  0  0  0  0  0  0
   -8.3020   17.7620  -10.7820 C   0  0  0  0  0  0  0  0  0  0  0  0
   -7.6760   19.7310   -8.5500 C   0  0  0  0  0  0  0  0  0  0  0  0
   -7.2500   22.5150   -5.7470 H   0  0  0  0  0  0  0  0  0  0  0  0
   -8.5130   23.4980   -6.4980 H   0  0  0  0  0  0  0  0  0  0  0  0
   -8.9940   22.0790   -5.5600 H   0  0  0  0  0  0  0  0  0  0  0  0
   -7.5840   20.2390   -5.1930 H   0  0  0  0  0  0  0  0  0  0  0  0
   -5.6140   19.2110   -4.0180 H   0  0  0  0  0  0  0  0  0  0  0  0
   -5.2330   18.0110   -1.9200 H   0  0  0  0  0  0  0  0  0  0  0  0
   -7.5130   14.6680   -3.4570 H   0  0  0  0  0  0  0  0  0  0  0  0
   -7.9310   15.8810   -5.4870 H   0  0  0  0  0  0  0  0  0  0  0  0
   -6.7270   16.6780   -7.4260 H   0  0  0  0  0  0  0  0  0  0  0  0
   -5.3650   16.6310   -9.5220 H   0  0  0  0  0  0  0  0  0  0  0  0
   -5.3400   15.4160  -11.6490 H   0  0  0  0  0  0  0  0  0  0  0  0
   -6.2760   15.0230  -13.8200 H   0  0  0  0  0  0  0  0  0  0  0  0
   -8.2470   13.7380  -13.1120 H   0  0  0  0  0  0  0  0  0  0  0  0
   -9.3390   14.9360  -13.7720 H   0  0  0  0  0  0  0  0  0  0  0  0
   -8.2700   14.0410  -14.8600 H   0  0  0  0  0  0  0  0  0  0  0  0
   -6.2960   17.1110  -14.7470 H   0  0  0  0  0  0  0  0  0  0  0  0
   -9.1400   17.1490  -12.6280 H   0  0  0  0  0  0  0  0  0  0  0  0
   -9.1480   18.4150  -10.5770 H   0  0  0  0  0  0  0  0  0  0  0  0
   -7.9070   20.2710   -9.4660 H   0  0  0  0  0  0  0  0  0  0  0  0
    6.9110   -4.2490    3.2460 C   0  0  0  0  0  0  0  0  0  0  0  0
    6.1260   -3.0600    3.2780 O   0  0  0  0  0  0  0  0  0  0  0  0
    6.5700   -4.8460    2.3940 H   0  0  0  0  0  0  0  0  0  0  0  0
    6.7190   -4.8140    4.1610 H   0  0  0  0  0  0  0  0  0  0  0  0
    7.9840   -4.0550    3.1660 H   0  0  0  0  0  0  0  0  0  0  0  0
  -11.7340   16.5940  -15.4100 C   0  0  0  0  0  0  0  0  0  0  0  0
  -10.6370   17.6520  -15.2180 C   0  0  0  0  0  0  0  0  0  0  0  0
  -10.6300   18.5820  -16.4340 C   0  0  0  0  0  0  0  0  0  0  0  0
  -10.9490   18.4310  -13.9350 C   0  0  0  0  0  0  0  0  0  0  0  0
   -9.4080   16.8870  -15.0710 O   0  0  0  0  0  0  0  0  0  0  0  0
   -8.1830   17.4600  -15.0770 C   0  0  0  0  0  0  0  0  0  0  0  0
   -7.9430   18.6330  -15.3300 O   0  0  0  0  0  0  0  0  0  0  0  0
  -12.7270   17.0500  -15.4900 H   0  0  0  0  0  0  0  0  0  0  0  0
  -11.5500   15.9990  -16.3120 H   0  0  0  0  0  0  0  0  0  0  0  0
  -11.7470   15.8870  -14.5720 H   0  0  0  0  0  0  0  0  0  0  0  0
  -10.3290   18.0440  -17.3380 H   0  0  0  0  0  0  0  0  0  0  0  0
   -9.9370   19.4180  -16.3070 H   0  0  0  0  0  0  0  0  0  0  0  0
  -11.6220   19.0190  -16.5980 H   0  0  0  0  0  0  0  0  0  0  0  0
  -11.0610   17.7520  -13.0830 H   0  0  0  0  0  0  0  0  0  0  0  0
  -10.1470   19.1330  -13.6850 H   0  0  0  0  0  0  0  0  0  0  0  0
  -11.8850   18.9910  -14.0190 H   0  0  0  0  0  0  0  0  0  0  0  0
  1 28  1  0  0  0  0
  2  1  1  0  0  0  0
  2  3  1  0  0  0  0
  3  4  1  0  0  0  0
  4 29  1  0  0  0  0
  4  5  2  0  0  0  0
  5  6  1  0  0  0  0
  6 13  1  0  0  0  0
  7  6  2  0  0  0  0
  7  8  1  0  0  0  0
  8  9  2  0  0  0  0
  9 10  1  0  0  0  0
  9 12  1  0  0  0  0
 10178  1  0  0  0  0
 11 10  2  0  0  0  0
 12 32  1  0  0  0  0
 13 33  1  0  0  0  0
 13 12  2  0  0  0  0
 14  5  1  0  0  0  0
 14 34  1  0  0  0  0
 15 14  2  0  0  0  0
 16 15  1  0  0  0  0
 16 24  1  0  0  0  0
 17 16  2  0  0  0  0
 18 17  1  0  0  0  0
 18 19  2  0  0  0  0
 19 23  1  0  0  0  0
 20 37  1  6  0  0  0
 20 19  1  0  0  0  0
 20 21  1  0  0  0  0
 21 39  1  0  0  0  0
 21 38  1  0  0  0  0
 22 54  1  0  0  0  0
 22 20  1  0  0  0  0
 23 24  2  0  0  0  0
 23 42  1  0  0  0  0
 24 43  1  0  0  0  0
 25  3  2  0  0  0  0
 25 15  1  0  0  0  0
 26  1  1  0  0  0  0
 27  1  1  0  0  0  0
 30  7  1  0  0  0  0
 31  8  1  0  0  0  0
 35 17  1  0  0  0  0
 36 18  1  0  0  0  0
 40 21  1  0  0  0  0
 41 22  1  0  0  0  0
 44 25  1  0  0  0  0
 45 70  1  0  0  0  0
 46 47  1  0  0  0  0
 46 45  1  0  0  0  0
 47 48  1  0  0  0  0
 48 49  2  0  0  0  0
 48 73  1  0  0  0  0
 49 50  1  0  0  0  0
 50 51  1  0  0  0  0
 51 74  1  0  0  0  0
 51 52  2  0  0  0  0
 52 75  1  0  0  0  0
 53 52  1  0  0  0  0
 53 54  1  0  0  0  0
 54 55  2  0  0  0  0
 56 53  2  0  0  0  0
 57 50  2  0  0  0  0
 57 56  1  0  0  0  0
 58 78  1  0  0  0  0
 58 49  1  0  0  0  0
 59 58  2  0  0  0  0
 60 59  1  0  0  0  0
 60 61  1  0  0  0  0
 61 79  1  0  0  0  0
 62 61  2  0  0  0  0
 62 80  1  0  0  0  0
 63 62  1  0  0  0  0
 64 63  1  0  0  0  0
 64 81  1  1  0  0  0
 65 82  1  0  0  0  0
 65 64  1  0  0  0  0
 66 64  1  0  0  0  0
 66 85  1  0  0  0  0
 67 68  1  0  0  0  0
 67 63  2  0  0  0  0
 68 60  2  0  0  0  0
 69 59  1  0  0  0  0
 69 47  2  0  0  0  0
 71 45  1  0  0  0  0
 72 45  1  0  0  0  0
 76 56  1  0  0  0  0
 77 57  1  0  0  0  0
 83 65  1  0  0  0  0
 84 65  1  0  0  0  0
 86 67  1  0  0  0  0
 87 68  1  0  0  0  0
 88 69  1  0  0  0  0
 89116  1  0  0  0  0
 89 90  1  0  0  0  0
 90 91  1  0  0  0  0
 91113  1  0  0  0  0
 92 91  2  0  0  0  0
 92 93  1  0  0  0  0
 93102  2  0  0  0  0
 94 93  1  0  0  0  0
 94101  1  0  0  0  0
 95 94  2  0  0  0  0
 96 95  1  0  0  0  0
 96 97  2  0  0  0  0
 97100  1  0  0  0  0
 98 97  1  0  0  0  0
 98 66  1  0  0  0  0
 99 98  2  0  0  0  0
100101  2  0  0  0  0
100120  1  0  0  0  0
101121  1  0  0  0  0
102103  1  0  0  0  0
102122  1  0  0  0  0
103104  1  0  0  0  0
104105  2  0  0  0  0
104112  1  0  0  0  0
105106  1  0  0  0  0
106124  1  0  0  0  0
106107  2  0  0  0  0
107108  1  0  0  0  0
108125  1  1  0  0  0
108109  1  0  0  0  0
109127  1  0  0  0  0
109126  1  0  0  0  0
109128  1  0  0  0  0
110108  1  0  0  0  0
111107  1  0  0  0  0
111130  1  0  0  0  0
112111  2  0  0  0  0
113132  1  0  0  0  0
113103  2  0  0  0  0
114 89  1  0  0  0  0
115 89  1  0  0  0  0
117 92  1  0  0  0  0
118 95  1  0  0  0  0
119 96  1  0  0  0  0
123105  1  0  0  0  0
129110  1  0  0  0  0
131112  1  0  0  0  0
133158  1  0  0  0  0
133160  1  0  0  0  0
134135  1  0  0  0  0
134133  1  0  0  0  0
135136  1  0  0  0  0
136161  1  0  0  0  0
137136  2  0  0  0  0
137138  1  0  0  0  0
138145  2  0  0  0  0
138139  1  0  0  0  0
139140  2  0  0  0  0
140141  1  0  0  0  0
140163  1  0  0  0  0
141142  1  0  0  0  0
142110  1  0  0  0  0
142143  2  0  0  0  0
144164  1  0  0  0  0
144141  2  0  0  0  0
145144  1  0  0  0  0
146137  1  0  0  0  0
147157  1  0  0  0  0
147146  2  0  0  0  0
148147  1  0  0  0  0
149148  1  0  0  0  0
149167  1  0  0  0  0
150149  2  0  0  0  0
151155  2  0  0  0  0
151150  1  0  0  0  0
152169  1  6  0  0  0
152151  1  0  0  0  0
153171  1  0  0  0  0
153152  1  0  0  0  0
153170  1  0  0  0  0
154152  1  0  0  0  0
155156  1  0  0  0  0
156175  1  0  0  0  0
156148  2  0  0  0  0
157135  2  0  0  0  0
159133  1  0  0  0  0
162139  1  0  0  0  0
165145  1  0  0  0  0
166146  1  0  0  0  0
168150  1  0  0  0  0
172153  1  0  0  0  0
173154  1  0  0  0  0
174155  1  0  0  0  0
176157  1  0  0  0  0
177178  1  0  0  0  0
177180  1  0  0  0  0
179177  1  0  0  0  0
181177  1  0  0  0  0
182183  1  0  0  0  0
182191  1  0  0  0  0
183186  1  0  0  0  0
183185  1  0  0  0  0
184193  1  0  0  0  0
184183  1  0  0  0  0
185196  1  0  0  0  0
185195  1  0  0  0  0
187186  1  0  0  0  0
187154  1  0  0  0  0
188187  2  0  0  0  0
189182  1  0  0  0  0
190182  1  0  0  0  0
192184  1  0  0  0  0
194184  1  0  0  0  0
197185  1  0  0  0  0
M  END
