pmp_trimer.pdb
 OpenBabel09052515223D

153161  0  0  1  0  0  0  0  0999 V2000
    2.1060    5.0050   -0.1960 C   0  0  0  0  0  0  0  0  0  0  0  0
    0.8970    4.2620   -0.2750 O   0  0  0  0  0  0  0  0  0  0  0  0
    0.9820    2.9020   -0.1580 C   0  0  0  0  0  0  0  0  0  0  0  0
    2.1530    2.1590   -0.0080 C   0  0  0  0  0  0  0  0  0  0  0  0
    2.1130    0.7540    0.0860 C   0  0  0  0  0  0  0  0  0  0  0  0
    3.3480   -0.0400    0.2450 C   0  0  0  0  0  0  0  0  0  0  0  0
    4.5100    0.2650   -0.4890 C   0  0  0  0  0  0  0  0  0  0  0  0
    5.6790   -0.4810   -0.3370 C   0  0  0  0  0  0  0  0  0  0  0  0
    5.7080   -1.5610    0.5500 C   0  0  0  0  0  0  0  0  0  0  0  0
    6.9050   -2.4380    0.5650 C   0  0  0  0  0  0  0  0  0  0  0  0
    7.9090   -2.2400   -0.0990 O   0  0  0  0  0  0  0  0  0  0  0  0
    4.5660   -1.8740    1.2970 C   0  0  0  0  0  0  0  0  0  0  0  0
    3.3990   -1.1270    1.1350 C   0  0  0  0  0  0  0  0  0  0  0  0
    0.8590    0.1190    0.0190 C   0  0  0  0  0  0  0  0  0  0  0  0
   -0.3350    0.8400   -0.1420 C   0  0  0  0  0  0  0  0  0  0  0  0
   -1.6390    0.1580   -0.2490 C   0  0  0  0  0  0  0  0  0  0  0  0
   -1.7940   -1.0020   -1.0240 C   0  0  0  0  0  0  0  0  0  0  0  0
   -3.0290   -1.6400   -1.1280 C   0  0  0  0  0  0  0  0  0  0  0  0
   -4.1460   -1.1410   -0.4450 C   0  0  0  0  0  0  0  0  0  0  0  0
   -5.4510   -1.8960   -0.5020 C   0  0  2  0  0  0  0  0  0  0  0  0
   -6.4820   -1.1160   -1.3150 C   0  0  0  0  0  0  0  0  0  0  0  0
   -5.9910   -2.2800    0.8000 N   0  0  0  0  0  0  0  0  0  0  0  0
   -4.0080    0.0170    0.3240 C   0  0  0  0  0  0  0  0  0  0  0  0
   -2.7700    0.6540    0.4220 C   0  0  0  0  0  0  0  0  0  0  0  0
   -0.2450    2.2380   -0.2250 C   0  0  0  0  0  0  0  0  0  0  0  0
    2.7820    4.7570   -1.0230 H   0  0  0  0  0  0  0  0  0  0  0  0
    1.8520    6.0660   -0.2850 H   0  0  0  0  0  0  0  0  0  0  0  0
    2.5940    4.8660    0.7740 H   0  0  0  0  0  0  0  0  0  0  0  0
    3.1140    2.6590    0.0350 H   0  0  0  0  0  0  0  0  0  0  0  0
    4.5090    1.0750   -1.2160 H   0  0  0  0  0  0  0  0  0  0  0  0
    6.5510   -0.2380   -0.9410 H   0  0  0  0  0  0  0  0  0  0  0  0
    4.5610   -2.7120    1.9900 H   0  0  0  0  0  0  0  0  0  0  0  0
    2.5250   -1.4130    1.7190 H   0  0  0  0  0  0  0  0  0  0  0  0
    0.8140   -0.9680    0.0800 H   0  0  0  0  0  0  0  0  0  0  0  0
   -0.9510   -1.4350   -1.5560 H   0  0  0  0  0  0  0  0  0  0  0  0
   -3.1000   -2.5480   -1.7230 H   0  0  0  0  0  0  0  0  0  0  0  0
   -5.2790   -2.8520   -1.0160 H   0  0  0  0  0  0  0  0  0  0  0  0
   -6.7260   -0.1480   -0.8620 H   0  0  0  0  0  0  0  0  0  0  0  0
   -6.1100   -0.9270   -2.3280 H   0  0  0  0  0  0  0  0  0  0  0  0
   -7.4140   -1.6840   -1.3890 H   0  0  0  0  0  0  0  0  0  0  0  0
   -6.9560   -2.5620    0.7460 H   0  0  0  0  0  0  0  0  0  0  0  0
   -4.8520    0.3940    0.8980 H   0  0  0  0  0  0  0  0  0  0  0  0
   -2.6860    1.5270    1.0660 H   0  0  0  0  0  0  0  0  0  0  0  0
   -1.1450    2.8290   -0.3800 H   0  0  0  0  0  0  0  0  0  0  0  0
   -4.3910  -11.5930    3.4840 C   0  0  0  0  0  0  0  0  0  0  0  0
   -5.7270  -11.6800    3.9630 O   0  0  0  0  0  0  0  0  0  0  0  0
   -6.4670  -10.5320    3.9960 C   0  0  0  0  0  0  0  0  0  0  0  0
   -6.0550   -9.2760    3.5580 C   0  0  0  0  0  0  0  0  0  0  0  0
   -6.9100   -8.1650    3.6320 C   0  0  0  0  0  0  0  0  0  0  0  0
   -6.4840   -6.8420    3.1510 C   0  0  0  0  0  0  0  0  0  0  0  0
   -5.2160   -6.3260    3.4500 C   0  0  0  0  0  0  0  0  0  0  0  0
   -4.8210   -5.0730    2.9740 C   0  0  0  0  0  0  0  0  0  0  0  0
   -5.6950   -4.2920    2.2040 C   0  0  0  0  0  0  0  0  0  0  0  0
   -5.1760   -3.0060    1.6590 C   0  0  0  0  0  0  0  0  0  0  0  0
   -4.0290   -2.6780    1.9410 O   0  0  0  0  0  0  0  0  0  0  0  0
   -6.9610   -4.7980    1.9040 C   0  0  0  0  0  0  0  0  0  0  0  0
   -7.3430   -6.0600    2.3650 C   0  0  0  0  0  0  0  0  0  0  0  0
   -8.1970   -8.3530    4.1560 C   0  0  0  0  0  0  0  0  0  0  0  0
   -8.6470   -9.6070    4.5950 C   0  0  0  0  0  0  0  0  0  0  0  0
  -10.0080   -9.7600    5.1290 C   0  0  0  0  0  0  0  0  0  0  0  0
  -10.5650   -8.7780    5.9650 C   0  0  0  0  0  0  0  0  0  0  0  0
  -11.8550   -8.9100    6.4780 C   0  0  0  0  0  0  0  0  0  0  0  0
  -12.6270  -10.0400    6.1730 C   0  0  0  0  0  0  0  0  0  0  0  0
  -14.0510  -10.1360    6.6860 C   0  0  2  0  0  0  0  0  0  0  0  0
  -14.1800  -11.2570    7.7190 C   0  0  0  0  0  0  0  0  0  0  0  0
  -15.0410  -10.2940    5.6270 N   0  0  0  0  0  0  0  0  0  0  0  0
  -12.0850  -11.0200    5.3310 C   0  0  0  0  0  0  0  0  0  0  0  0
  -10.8000  -10.8730    4.8030 C   0  0  0  0  0  0  0  0  0  0  0  0
   -7.7560  -10.6870    4.5110 C   0  0  0  0  0  0  0  0  0  0  0  0
   -3.7960  -10.8900    4.0760 H   0  0  0  0  0  0  0  0  0  0  0  0
   -3.9420  -12.5840    3.6000 H   0  0  0  0  0  0  0  0  0  0  0  0
   -4.3660  -11.3370    2.4190 H   0  0  0  0  0  0  0  0  0  0  0  0
   -5.0710   -9.1350    3.1240 H   0  0  0  0  0  0  0  0  0  0  0  0
   -4.5150   -6.8890    4.0620 H   0  0  0  0  0  0  0  0  0  0  0  0
   -3.8160   -4.7190    3.1990 H   0  0  0  0  0  0  0  0  0  0  0  0
   -7.6800   -4.2580    1.3030 H   0  0  0  0  0  0  0  0  0  0  0  0
   -8.3260   -6.4330    2.0850 H   0  0  0  0  0  0  0  0  0  0  0  0
   -8.8740   -7.5010    4.2210 H   0  0  0  0  0  0  0  0  0  0  0  0
   -9.9990   -7.8830    6.2180 H   0  0  0  0  0  0  0  0  0  0  0  0
  -12.2600   -8.1050    7.0850 H   0  0  0  0  0  0  0  0  0  0  0  0
  -14.3190   -9.1960    7.1860 H   0  0  0  0  0  0  0  0  0  0  0  0
  -13.9300  -12.2300    7.2830 H   0  0  0  0  0  0  0  0  0  0  0  0
  -13.5160  -11.0810    8.5730 H   0  0  0  0  0  0  0  0  0  0  0  0
  -15.2050  -11.3300    8.1050 H   0  0  0  0  0  0  0  0  0  0  0  0
  -15.8850  -10.7700    5.9040 H   0  0  0  0  0  0  0  0  0  0  0  0
  -12.6840  -11.8790    5.0380 H   0  0  0  0  0  0  0  0  0  0  0  0
  -10.4290  -11.6180    4.1010 H   0  0  0  0  0  0  0  0  0  0  0  0
   -8.0580  -11.6760    4.8530 H   0  0  0  0  0  0  0  0  0  0  0  0
  -21.1590   -3.5470    1.9830 C   0  0  0  0  0  0  0  0  0  0  0  0
  -22.1560   -4.5360    1.7720 O   0  0  0  0  0  0  0  0  0  0  0  0
  -21.8000   -5.8290    2.0370 C   0  0  0  0  0  0  0  0  0  0  0  0
  -20.5550   -6.2580    2.4970 C   0  0  0  0  0  0  0  0  0  0  0  0
  -20.3030   -7.6230    2.7060 C   0  0  0  0  0  0  0  0  0  0  0  0
  -18.9900   -8.0970    3.1720 C   0  0  0  0  0  0  0  0  0  0  0  0
  -17.7950   -7.6000    2.6280 C   0  0  0  0  0  0  0  0  0  0  0  0
  -16.5580   -8.0590    3.0810 C   0  0  0  0  0  0  0  0  0  0  0  0
  -16.4820   -9.0210    4.0960 C   0  0  0  0  0  0  0  0  0  0  0  0
  -15.1300   -9.3480    4.6220 C   0  0  0  0  0  0  0  0  0  0  0  0
  -14.1720   -8.7140    4.1940 O   0  0  0  0  0  0  0  0  0  0  0  0
  -17.6660   -9.5340    4.6340 C   0  0  0  0  0  0  0  0  0  0  0  0
  -18.9000   -9.0710    4.1780 C   0  0  0  0  0  0  0  0  0  0  0  0
  -21.3420   -8.5380    2.4530 C   0  0  0  0  0  0  0  0  0  0  0  0
  -22.6040   -8.1350    1.9950 C   0  0  0  0  0  0  0  0  0  0  0  0
  -23.6700   -9.1200    1.7330 C   0  0  0  0  0  0  0  0  0  0  0  0
  -23.4030  -10.3470    1.0990 C   0  0  0  0  0  0  0  0  0  0  0  0
  -24.4130  -11.2840    0.8590 C   0  0  0  0  0  0  0  0  0  0  0  0
  -25.7240  -11.0220    1.2600 C   0  0  0  0  0  0  0  0  0  0  0  0
  -26.8090  -12.0700    1.0700 C   0  0  2  0  0  0  0  0  0  0  0  0
  -27.7830  -11.5960   -0.0110 C   0  0  0  0  0  0  0  0  0  0  0  0
  -27.4820  -12.2770    2.3410 N   0  0  0  0  0  0  0  0  0  0  0  0
  -26.0020   -9.7980    1.8880 C   0  0  0  0  0  0  0  0  0  0  0  0
  -24.9900   -8.8680    2.1260 C   0  0  0  0  0  0  0  0  0  0  0  0
  -22.8090   -6.7630    1.8010 C   0  0  0  0  0  0  0  0  0  0  0  0
  -20.2930   -3.7170    1.3360 H   0  0  0  0  0  0  0  0  0  0  0  0
  -21.5940   -2.5800    1.7180 H   0  0  0  0  0  0  0  0  0  0  0  0
  -20.8670   -3.5070    3.0370 H   0  0  0  0  0  0  0  0  0  0  0  0
  -19.7610   -5.5450    2.7060 H   0  0  0  0  0  0  0  0  0  0  0  0
  -17.8050   -6.8450    1.8460 H   0  0  0  0  0  0  0  0  0  0  0  0
  -15.6470   -7.6410    2.6500 H   0  0  0  0  0  0  0  0  0  0  0  0
  -17.6830  -10.2730    5.4250 H   0  0  0  0  0  0  0  0  0  0  0  0
  -19.8000   -9.4710    4.6440 H   0  0  0  0  0  0  0  0  0  0  0  0
  -21.1660   -9.6000    2.6150 H   0  0  0  0  0  0  0  0  0  0  0  0
  -22.3910  -10.5900    0.7850 H   0  0  0  0  0  0  0  0  0  0  0  0
  -24.1660  -12.2240    0.3720 H   0  0  0  0  0  0  0  0  0  0  0  0
  -26.3660  -13.0190    0.7470 H   0  0  0  0  0  0  0  0  0  0  0  0
  -28.3130  -10.6830    0.2830 H   0  0  0  0  0  0  0  0  0  0  0  0
  -27.2480  -11.3810   -0.9440 H   0  0  0  0  0  0  0  0  0  0  0  0
  -28.5370  -12.3620   -0.2210 H   0  0  0  0  0  0  0  0  0  0  0  0
  -28.4200  -12.6470    2.2670 H   0  0  0  0  0  0  0  0  0  0  0  0
  -27.0070   -9.5720    2.2380 H   0  0  0  0  0  0  0  0  0  0  0  0
  -25.2410   -7.9530    2.6550 H   0  0  0  0  0  0  0  0  0  0  0  0
  -23.7710   -6.4020    1.4430 H   0  0  0  0  0  0  0  0  0  0  0  0
    7.1590   -4.7600    0.7540 C   0  0  0  0  0  0  0  0  0  0  0  0
    6.6000   -3.5590    1.2670 O   0  0  0  0  0  0  0  0  0  0  0  0
    6.4850   -5.1290   -0.0280 H   0  0  0  0  0  0  0  0  0  0  0  0
    7.1820   -5.5010    1.5570 H   0  0  0  0  0  0  0  0  0  0  0  0
    8.1670   -4.6310    0.3550 H   0  0  0  0  0  0  0  0  0  0  0  0
  -26.1170  -11.0400    6.4220 C   0  0  0  0  0  0  0  0  0  0  0  0
  -26.1710  -12.3870    5.6810 C   0  0  0  0  0  0  0  0  0  0  0  0
  -24.7460  -12.9300    5.5530 C   0  0  0  0  0  0  0  0  0  0  0  0
  -27.0710  -13.3620    6.4350 C   0  0  0  0  0  0  0  0  0  0  0  0
  -26.7850  -12.0690    4.4110 O   0  0  0  0  0  0  0  0  0  0  0  0
  -26.7970  -12.9120    3.3520 C   0  0  0  0  0  0  0  0  0  0  0  0
  -26.3040  -14.0110    3.2760 O   0  0  0  0  0  0  0  0  0  0  0  0
  -25.6740  -11.1470    7.4170 H   0  0  0  0  0  0  0  0  0  0  0  0
  -25.5240  -10.3110    5.8550 H   0  0  0  0  0  0  0  0  0  0  0  0
  -27.1140  -10.5960    6.5260 H   0  0  0  0  0  0  0  0  0  0  0  0
  -24.1450  -12.2840    4.9080 H   0  0  0  0  0  0  0  0  0  0  0  0
  -24.7310  -13.9360    5.1230 H   0  0  0  0  0  0  0  0  0  0  0  0
  -24.2560  -13.0020    6.5320 H   0  0  0  0  0  0  0  0  0  0  0  0
  -28.1020  -12.9930    6.4680 H   0  0  0  0  0  0  0  0  0  0  0  0
  -27.0960  -14.3320    5.9240 H   0  0  0  0  0  0  0  0  0  0  0  0
  -26.7290  -13.5240    7.4610 H   0  0  0  0  0  0  0  0  0  0  0  0
  1 28  1  0  0  0  0
  2  1  1  0  0  0  0
  2  3  1  0  0  0  0
  3  4  1  0  0  0  0
  4 29  1  0  0  0  0
  4  5  2  0  0  0  0
  5  6  1  0  0  0  0
  6 13  1  0  0  0  0
  7  8  1  0  0  0  0
  7  6  2  0  0  0  0
  8  9  2  0  0  0  0
  9 10  1  0  0  0  0
  9 12  1  0  0  0  0
 10134  1  0  0  0  0
 11 10  2  0  0  0  0
 12 32  1  0  0  0  0
 13 12  2  0  0  0  0
 13 33  1  0  0  0  0
 14 34  1  0  0  0  0
 14  5  1  0  0  0  0
 15 14  2  0  0  0  0
 16 15  1  0  0  0  0
 16 24  1  0  0  0  0
 17 16  2  0  0  0  0
 18 17  1  0  0  0  0
 18 19  2  0  0  0  0
 19 23  1  0  0  0  0
 20 37  1  6  0  0  0
 20 19  1  0  0  0  0
 20 22  1  0  0  0  0
 21 38  1  0  0  0  0
 21 20  1  0  0  0  0
 22 54  1  0  0  0  0
 23 24  2  0  0  0  0
 23 42  1  0  0  0  0
 24 43  1  0  0  0  0
 25  3  2  0  0  0  0
 25 15  1  0  0  0  0
 26  1  1  0  0  0  0
 27  1  1  0  0  0  0
 30  7  1  0  0  0  0
 31  8  1  0  0  0  0
 35 17  1  0  0  0  0
 36 18  1  0  0  0  0
 39 21  1  0  0  0  0
 40 21  1  0  0  0  0
 41 22  1  0  0  0  0
 44 25  1  0  0  0  0
 45 71  1  0  0  0  0
 45 46  1  0  0  0  0
 45 70  1  0  0  0  0
 46 47  1  0  0  0  0
 47 69  1  0  0  0  0
 48 49  1  0  0  0  0
 48 47  2  0  0  0  0
 49 58  2  0  0  0  0
 50 51  1  0  0  0  0
 50 49  1  0  0  0  0
 51 74  1  0  0  0  0
 52 75  1  0  0  0  0
 52 51  2  0  0  0  0
 53 52  1  0  0  0  0
 54 55  2  0  0  0  0
 54 53  1  0  0  0  0
 56 53  2  0  0  0  0
 56 57  1  0  0  0  0
 57 50  2  0  0  0  0
 58 78  1  0  0  0  0
 58 59  1  0  0  0  0
 59 60  1  0  0  0  0
 60 61  1  0  0  0  0
 61 79  1  0  0  0  0
 61 62  2  0  0  0  0
 62 80  1  0  0  0  0
 63 62  1  0  0  0  0
 63 64  1  0  0  0  0
 64 81  1  1  0  0  0
 64 65  1  0  0  0  0
 65 84  1  0  0  0  0
 65 83  1  0  0  0  0
 66 85  1  0  0  0  0
 66 64  1  0  0  0  0
 67 63  2  0  0  0  0
 68 60  2  0  0  0  0
 68 67  1  0  0  0  0
 69 59  2  0  0  0  0
 69 88  1  0  0  0  0
 72 45  1  0  0  0  0
 73 48  1  0  0  0  0
 76 56  1  0  0  0  0
 77 57  1  0  0  0  0
 82 65  1  0  0  0  0
 86 67  1  0  0  0  0
 87 68  1  0  0  0  0
 89116  1  0  0  0  0
 90 89  1  0  0  0  0
 90 91  1  0  0  0  0
 91 92  1  0  0  0  0
 92117  1  0  0  0  0
 92 93  2  0  0  0  0
 93 94  1  0  0  0  0
 94101  1  0  0  0  0
 95 96  1  0  0  0  0
 95 94  2  0  0  0  0
 96 97  2  0  0  0  0
 97 98  1  0  0  0  0
 97100  1  0  0  0  0
 98 66  1  0  0  0  0
 99 98  2  0  0  0  0
100120  1  0  0  0  0
101100  2  0  0  0  0
101121  1  0  0  0  0
102122  1  0  0  0  0
102 93  1  0  0  0  0
103102  2  0  0  0  0
104103  1  0  0  0  0
104112  1  0  0  0  0
105104  2  0  0  0  0
106105  1  0  0  0  0
106107  2  0  0  0  0
107111  1  0  0  0  0
108125  1  6  0  0  0
108107  1  0  0  0  0
108110  1  0  0  0  0
109126  1  0  0  0  0
109108  1  0  0  0  0
110143  1  0  0  0  0
111112  2  0  0  0  0
111130  1  0  0  0  0
112131  1  0  0  0  0
113103  1  0  0  0  0
113 91  2  0  0  0  0
114 89  1  0  0  0  0
115 89  1  0  0  0  0
118 95  1  0  0  0  0
119 96  1  0  0  0  0
123105  1  0  0  0  0
124106  1  0  0  0  0
127109  1  0  0  0  0
128109  1  0  0  0  0
129110  1  0  0  0  0
132113  1  0  0  0  0
133134  1  0  0  0  0
133136  1  0  0  0  0
135133  1  0  0  0  0
137133  1  0  0  0  0
138147  1  0  0  0  0
138145  1  0  0  0  0
139138  1  0  0  0  0
139141  1  0  0  0  0
140139  1  0  0  0  0
140150  1  0  0  0  0
141151  1  0  0  0  0
141153  1  0  0  0  0
142139  1  0  0  0  0
143142  1  0  0  0  0
144143  2  0  0  0  0
146138  1  0  0  0  0
148140  1  0  0  0  0
149140  1  0  0  0  0
152141  1  0  0  0  0
M  END
