pmp_trimer.pdb
  -OEChem-08282518213D

153161  0     1  0  0  0  0  0999 V2000
    2.0750    4.9820   -0.1760 C   0  0  0  0  0  0  0  0  0  0  0  0
    0.8640    4.2410   -0.2150 O   0  0  0  0  0  0  0  0  0  0  0  0
    0.9600    2.8800   -0.1420 C   0  0  0  0  0  0  0  0  0  0  0  0
    2.1330    2.1380   -0.0040 C   0  0  0  0  0  0  0  0  0  0  0  0
    2.1020    0.7330    0.0660 C   0  0  0  0  0  0  0  0  0  0  0  0
    3.3410   -0.0540    0.2230 C   0  0  0  0  0  0  0  0  0  0  0  0
    4.5020    0.2590   -0.5060 C   0  0  0  0  0  0  0  0  0  0  0  0
    5.6830   -0.4730   -0.3440 C   0  0  0  0  0  0  0  0  0  0  0  0
    5.7240   -1.5470    0.5480 C   0  0  0  0  0  0  0  0  0  0  0  0
    6.9630   -2.3640    0.6150 C   0  0  0  0  0  0  0  0  0  0  0  0
    7.9620   -2.1540   -0.0530 O   0  0  0  0  0  0  0  0  0  0  0  0
    4.5730   -1.8860    1.2680 C   0  0  0  0  0  0  0  0  0  0  0  0
    3.3990   -1.1460    1.1070 C   0  0  0  0  0  0  0  0  0  0  0  0
    0.8500    0.0970   -0.0080 C   0  0  0  0  0  0  0  0  0  0  0  0
   -0.3460    0.8180   -0.1510 C   0  0  0  0  0  0  0  0  0  0  0  0
   -1.6460    0.1330   -0.2430 C   0  0  0  0  0  0  0  0  0  0  0  0
   -1.7970   -1.0350   -1.0080 C   0  0  0  0  0  0  0  0  0  0  0  0
   -3.0250   -1.6860   -1.0930 C   0  0  0  0  0  0  0  0  0  0  0  0
   -4.1410   -1.1770   -0.4200 C   0  0  0  0  0  0  0  0  0  0  0  0
   -5.4450   -1.9320   -0.4580 C   0  0  2  0  0  0  0  0  0  0  0  0
   -6.4720   -1.1740   -1.3000 C   0  0  0  0  0  0  0  0  0  0  0  0
   -5.9720   -2.2490    0.8670 N   0  0  0  0  0  0  0  0  0  0  0  0
   -4.0070   -0.0090    0.3390 C   0  0  0  0  0  0  0  0  0  0  0  0
   -2.7720    0.6280    0.4350 C   0  0  0  0  0  0  0  0  0  0  0  0
   -0.2640    2.2150   -0.2140 C   0  0  0  0  0  0  0  0  0  0  0  0
    2.7190    4.7300   -1.0240 H   0  0  0  0  0  0  0  0  0  0  0  0
    1.8160    6.0420   -0.2570 H   0  0  0  0  0  0  0  0  0  0  0  0
    2.5960    4.8380    0.7760 H   0  0  0  0  0  0  0  0  0  0  0  0
    3.0930    2.6400    0.0680 H   0  0  0  0  0  0  0  0  0  0  0  0
    4.4930    1.0720   -1.2300 H   0  0  0  0  0  0  0  0  0  0  0  0
    6.5600   -0.2150   -0.9350 H   0  0  0  0  0  0  0  0  0  0  0  0
    4.5630   -2.7340    1.9480 H   0  0  0  0  0  0  0  0  0  0  0  0
    2.5260   -1.4340    1.6890 H   0  0  0  0  0  0  0  0  0  0  0  0
    0.8020   -0.9900    0.0480 H   0  0  0  0  0  0  0  0  0  0  0  0
   -0.9510   -1.4580   -1.5450 H   0  0  0  0  0  0  0  0  0  0  0  0
   -3.0960   -2.6100   -1.6610 H   0  0  0  0  0  0  0  0  0  0  0  0
   -5.2810   -2.9080   -0.9360 H   0  0  0  0  0  0  0  0  0  0  0  0
   -6.7210   -0.2010   -0.8620 H   0  0  0  0  0  0  0  0  0  0  0  0
   -6.0900   -1.0000   -2.3120 H   0  0  0  0  0  0  0  0  0  0  0  0
   -7.4040   -1.7440   -1.3870 H   0  0  0  0  0  0  0  0  0  0  0  0
   -6.9410   -2.5110    0.8400 H   0  0  0  0  0  0  0  0  0  0  0  0
   -4.8500    0.3730    0.9090 H   0  0  0  0  0  0  0  0  0  0  0  0
   -2.6920    1.5020    1.0770 H   0  0  0  0  0  0  0  0  0  0  0  0
   -1.1680    2.8090   -0.3340 H   0  0  0  0  0  0  0  0  0  0  0  0
   -4.3840  -11.5920    3.5260 C   0  0  0  0  0  0  0  0  0  0  0  0
   -5.7160  -11.6710    4.0140 O   0  0  0  0  0  0  0  0  0  0  0  0
   -6.4560  -10.5220    4.0040 C   0  0  0  0  0  0  0  0  0  0  0  0
   -6.0320   -9.2760    3.5470 C   0  0  0  0  0  0  0  0  0  0  0  0
   -6.8900   -8.1610    3.5970 C   0  0  0  0  0  0  0  0  0  0  0  0
   -6.4590   -6.8360    3.1300 C   0  0  0  0  0  0  0  0  0  0  0  0
   -5.1910   -6.3270    3.4400 C   0  0  0  0  0  0  0  0  0  0  0  0
   -4.8040   -5.0600    3.0020 C   0  0  0  0  0  0  0  0  0  0  0  0
   -5.6810   -4.2660    2.2500 C   0  0  0  0  0  0  0  0  0  0  0  0
   -5.1600   -2.9720    1.7330 C   0  0  0  0  0  0  0  0  0  0  0  0
   -4.0210   -2.6360    2.0410 O   0  0  0  0  0  0  0  0  0  0  0  0
   -6.9460   -4.7640    1.9320 C   0  0  0  0  0  0  0  0  0  0  0  0
   -7.3240   -6.0330    2.3670 C   0  0  0  0  0  0  0  0  0  0  0  0
   -8.1860   -8.3420    4.1090 C   0  0  0  0  0  0  0  0  0  0  0  0
   -8.6390   -9.5860    4.5680 C   0  0  0  0  0  0  0  0  0  0  0  0
   -9.9980   -9.7540    5.1000 C   0  0  0  0  0  0  0  0  0  0  0  0
  -10.5620   -8.7940    5.9570 C   0  0  0  0  0  0  0  0  0  0  0  0
  -11.8500   -8.9490    6.4630 C   0  0  0  0  0  0  0  0  0  0  0  0
  -12.6070  -10.0770    6.1280 C   0  0  0  0  0  0  0  0  0  0  0  0
  -14.0220  -10.1990    6.6370 C   0  0  2  0  0  0  0  0  0  0  0  0
  -14.1030  -11.2900    7.7040 C   0  0  0  0  0  0  0  0  0  0  0  0
  -15.0080  -10.4060    5.5810 N   0  0  0  0  0  0  0  0  0  0  0  0
  -12.0580  -11.0420    5.2770 C   0  0  0  0  0  0  0  0  0  0  0  0
  -10.7740  -10.8740    4.7620 C   0  0  0  0  0  0  0  0  0  0  0  0
   -7.7430  -10.6690    4.5100 C   0  0  0  0  0  0  0  0  0  0  0  0
   -3.7870  -10.8930    4.1190 H   0  0  0  0  0  0  0  0  0  0  0  0
   -3.9350  -12.5850    3.6270 H   0  0  0  0  0  0  0  0  0  0  0  0
   -4.3700  -11.3260    2.4630 H   0  0  0  0  0  0  0  0  0  0  0  0
   -5.0400   -9.1470    3.1330 H   0  0  0  0  0  0  0  0  0  0  0  0
   -4.4880   -6.9080    4.0330 H   0  0  0  0  0  0  0  0  0  0  0  0
   -3.8020   -4.7020    3.2380 H   0  0  0  0  0  0  0  0  0  0  0  0
   -7.6620   -4.2150    1.3340 H   0  0  0  0  0  0  0  0  0  0  0  0
   -8.3110   -6.4000    2.0880 H   0  0  0  0  0  0  0  0  0  0  0  0
   -8.8660   -7.4920    4.1480 H   0  0  0  0  0  0  0  0  0  0  0  0
  -10.0020   -7.9050    6.2370 H   0  0  0  0  0  0  0  0  0  0  0  0
  -12.2670   -8.1700    7.0960 H   0  0  0  0  0  0  0  0  0  0  0  0
  -14.3160   -9.2520    7.1090 H   0  0  0  0  0  0  0  0  0  0  0  0
  -13.8460  -12.2760    7.3020 H   0  0  0  0  0  0  0  0  0  0  0  0
  -13.4120  -11.0740    8.5280 H   0  0  0  0  0  0  0  0  0  0  0  0
  -15.1130  -11.3560    8.1230 H   0  0  0  0  0  0  0  0  0  0  0  0
  -15.8870  -10.7320    5.9360 H   0  0  0  0  0  0  0  0  0  0  0  0
  -12.6500  -11.8980    4.9650 H   0  0  0  0  0  0  0  0  0  0  0  0
  -10.3970  -11.6170    4.0630 H   0  0  0  0  0  0  0  0  0  0  0  0
   -8.0530  -11.6440    4.8750 H   0  0  0  0  0  0  0  0  0  0  0  0
  -19.9460   -2.2290    3.1860 C   0  0  0  0  0  0  0  0  0  0  0  0
  -21.1570   -2.9720    3.1770 O   0  0  0  0  0  0  0  0  0  0  0  0
  -21.0590   -4.3250    3.3280 C   0  0  0  0  0  0  0  0  0  0  0  0
  -19.8870   -5.0510    3.5410 C   0  0  0  0  0  0  0  0  0  0  0  0
  -19.9200   -6.4490    3.6830 C   0  0  0  0  0  0  0  0  0  0  0  0
  -18.6920   -7.2290    3.9070 C   0  0  0  0  0  0  0  0  0  0  0  0
  -17.5230   -6.9700    3.1790 C   0  0  0  0  0  0  0  0  0  0  0  0
  -16.3690   -7.7250    3.3910 C   0  0  0  0  0  0  0  0  0  0  0  0
  -16.3580   -8.7660    4.3300 C   0  0  0  0  0  0  0  0  0  0  0  0
  -15.0620   -9.4640    4.5530 C   0  0  0  0  0  0  0  0  0  0  0  0
  -14.0980   -9.1340    3.8810 O   0  0  0  0  0  0  0  0  0  0  0  0
  -17.5140   -9.0260    5.0690 C   0  0  0  0  0  0  0  0  0  0  0  0
  -18.6630   -8.2650    4.8560 C   0  0  0  0  0  0  0  0  0  0  0  0
  -21.1630   -7.0980    3.6060 C   0  0  0  0  0  0  0  0  0  0  0  0
  -22.3560   -6.3940    3.3920 C   0  0  0  0  0  0  0  0  0  0  0  0
  -23.6460   -7.0940    3.3060 C   0  0  0  0  0  0  0  0  0  0  0  0
  -23.7690   -8.2990    2.5930 C   0  0  0  0  0  0  0  0  0  0  0  0
  -24.9850   -8.9750    2.5310 C   0  0  0  0  0  0  0  0  0  0  0  0
  -26.1120   -8.4570    3.1770 C   0  0  0  0  0  0  0  0  0  0  0  0
  -27.3920   -9.2630    3.1890 C   0  0  2  0  0  0  0  0  0  0  0  0
  -28.4230   -8.5580    2.3050 C   0  0  0  0  0  0  0  0  0  0  0  0
  -27.8940   -9.5390    4.5330 N   0  0  0  0  0  0  0  0  0  0  0  0
  -26.0070   -7.2500    3.8800 C   0  0  0  0  0  0  0  0  0  0  0  0
  -24.7850   -6.5860    3.9510 C   0  0  0  0  0  0  0  0  0  0  0  0
  -22.2780   -5.0020    3.2580 C   0  0  0  0  0  0  0  0  0  0  0  0
  -19.2870   -2.5370    2.3680 H   0  0  0  0  0  0  0  0  0  0  0  0
  -20.2030   -1.1770    3.0310 H   0  0  0  0  0  0  0  0  0  0  0  0
  -19.4420   -2.3100    4.1540 H   0  0  0  0  0  0  0  0  0  0  0  0
  -18.9310   -4.5440    3.6150 H   0  0  0  0  0  0  0  0  0  0  0  0
  -17.4960   -6.1810    2.4310 H   0  0  0  0  0  0  0  0  0  0  0  0
  -15.4680   -7.4810    2.8280 H   0  0  0  0  0  0  0  0  0  0  0  0
  -17.5630   -9.7930    5.8310 H   0  0  0  0  0  0  0  0  0  0  0  0
  -19.5440   -8.4820    5.4590 H   0  0  0  0  0  0  0  0  0  0  0  0
  -21.2030   -8.1810    3.7160 H   0  0  0  0  0  0  0  0  0  0  0  0
  -22.9080   -8.7420    2.0980 H   0  0  0  0  0  0  0  0  0  0  0  0
  -25.0340   -9.9310    2.0160 H   0  0  0  0  0  0  0  0  0  0  0  0
  -27.2010  -10.2520    2.7530 H   0  0  0  0  0  0  0  0  0  0  0  0
  -28.6760   -7.5590    2.6800 H   0  0  0  0  0  0  0  0  0  0  0  0
  -28.0300   -8.4350    1.2880 H   0  0  0  0  0  0  0  0  0  0  0  0
  -29.3520   -9.1330    2.2360 H   0  0  0  0  0  0  0  0  0  0  0  0
  -28.8500   -9.8630    4.5810 H   0  0  0  0  0  0  0  0  0  0  0  0
  -26.8610   -6.8560    4.4270 H   0  0  0  0  0  0  0  0  0  0  0  0
  -24.7210   -5.6800    4.5500 H   0  0  0  0  0  0  0  0  0  0  0  0
  -23.1810   -4.4220    3.0810 H   0  0  0  0  0  0  0  0  0  0  0  0
    7.1390   -4.6710    0.7730 C   0  0  0  0  0  0  0  0  0  0  0  0
    6.7300   -3.4530    1.3870 O   0  0  0  0  0  0  0  0  0  0  0  0
    6.3670   -4.9500    0.0480 H   0  0  0  0  0  0  0  0  0  0  0  0
    7.1840   -5.4470    1.5400 H   0  0  0  0  0  0  0  0  0  0  0  0
    8.1100   -4.5960    0.2770 H   0  0  0  0  0  0  0  0  0  0  0  0
  -23.4990   -9.7720    5.9450 C   0  0  0  0  0  0  0  0  0  0  0  0
  -24.8190  -10.4960    6.2660 C   0  0  0  0  0  0  0  0  0  0  0  0
  -24.6720  -11.9640    5.8650 C   0  0  0  0  0  0  0  0  0  0  0  0
  -25.1080  -10.3180    7.7570 C   0  0  0  0  0  0  0  0  0  0  0  0
  -25.8300   -9.8710    5.4410 O   0  0  0  0  0  0  0  0  0  0  0  0
  -27.1400  -10.2010    5.4770 C   0  0  0  0  0  0  0  0  0  0  0  0
  -27.6580  -10.9930    6.2530 O   0  0  0  0  0  0  0  0  0  0  0  0
  -22.6600  -10.1780    6.5210 H   0  0  0  0  0  0  0  0  0  0  0  0
  -23.2470   -9.8660    4.8850 H   0  0  0  0  0  0  0  0  0  0  0  0
  -23.5730   -8.6990    6.1590 H   0  0  0  0  0  0  0  0  0  0  0  0
  -24.5510  -12.0530    4.7780 H   0  0  0  0  0  0  0  0  0  0  0  0
  -25.5610  -12.5420    6.1290 H   0  0  0  0  0  0  0  0  0  0  0  0
  -23.8070  -12.4270    6.3490 H   0  0  0  0  0  0  0  0  0  0  0  0
  -25.2790   -9.2620    7.9950 H   0  0  0  0  0  0  0  0  0  0  0  0
  -26.0030  -10.8620    8.0670 H   0  0  0  0  0  0  0  0  0  0  0  0
  -24.2730  -10.6790    8.3670 H   0  0  0  0  0  0  0  0  0  0  0  0
  1 28  1  0  0  0  0
  1  2  1  0  0  0  0
  2  3  1  0  0  0  0
  3  4  2  0  0  0  0
  4  5  1  0  0  0  0
  4 29  1  0  0  0  0
  5  6  1  0  0  0  0
  6 13  2  0  0  0  0
  7  8  2  0  0  0  0
  6  7  1  0  0  0  0
  8  9  1  0  0  0  0
  9 10  1  0  0  0  0
  9 12  2  0  0  0  0
 10134  1  0  0  0  0
 10 11  2  0  0  0  0
 12 32  1  0  0  0  0
 12 13  1  0  0  0  0
 13 33  1  0  0  0  0
 14 34  1  0  0  0  0
  5 14  2  0  0  0  0
 14 15  1  0  0  0  0
 15 16  1  0  0  0  0
 16 24  1  0  0  0  0
 16 17  2  0  0  0  0
 17 18  1  0  0  0  0
 18 19  2  0  0  0  0
 19 23  1  0  0  0  0
 20 37  1  0  0  0  0
 19 20  1  0  0  0  0
 20 22  1  0  0  0  0
 21 38  1  0  0  0  0
 20 21  1  0  0  0  0
 22 54  1  0  0  0  0
 23 24  2  0  0  0  0
 23 42  1  0  0  0  0
 24 43  1  0  0  0  0
 15 25  2  0  0  0  0
  3 25  1  0  0  0  0
  1 26  1  0  0  0  0
  1 27  1  0  0  0  0
  7 30  1  0  0  0  0
  8 31  1  0  0  0  0
 17 35  1  0  0  0  0
 18 36  1  0  0  0  0
 21 39  1  0  0  0  0
 21 40  1  0  0  0  0
 22 41  1  0  0  0  0
 25 44  1  0  0  0  0
 45 71  1  0  0  0  0
 45 46  1  0  0  0  0
 45 70  1  0  0  0  0
 46 47  1  0  0  0  0
 47 69  2  0  0  0  0
 48 49  2  0  0  0  0
 47 48  1  0  0  0  0
 49 58  1  0  0  0  0
 50 51  2  0  0  0  0
 49 50  1  0  0  0  0
 51 74  1  0  0  0  0
 52 75  1  0  0  0  0
 51 52  1  0  0  0  0
 52 53  2  0  0  0  0
 54 55  2  0  0  0  0
 53 54  1  0  0  0  0
 53 56  1  0  0  0  0
 56 57  2  0  0  0  0
 50 57  1  0  0  0  0
 58 78  1  0  0  0  0
 58 59  2  0  0  0  0
 59 60  1  0  0  0  0
 60 61  2  0  0  0  0
 61 79  1  0  0  0  0
 61 62  1  0  0  0  0
 62 80  1  0  0  0  0
 62 63  2  0  0  0  0
 63 64  1  0  0  0  0
 64 81  1  0  0  0  0
 64 65  1  0  0  0  0
 65 84  1  0  0  0  0
 65 83  1  0  0  0  0
 66 85  1  0  0  0  0
 64 66  1  0  0  0  0
 63 67  1  0  0  0  0
 60 68  1  0  0  0  0
 67 68  2  0  0  0  0
 59 69  1  0  0  0  0
 69 88  1  0  0  0  0
 45 72  1  0  0  0  0
 48 73  1  0  0  0  0
 56 76  1  0  0  0  0
 57 77  1  0  0  0  0
 65 82  1  0  0  0  0
 67 86  1  0  0  0  0
 68 87  1  0  0  0  0
 89116  1  0  0  0  0
 89 90  1  0  0  0  0
 90 91  1  0  0  0  0
 91 92  2  0  0  0  0
 92117  1  0  0  0  0
 92 93  1  0  0  0  0
 93 94  1  0  0  0  0
 94101  2  0  0  0  0
 95 96  2  0  0  0  0
 94 95  1  0  0  0  0
 96 97  1  0  0  0  0
 97 98  1  0  0  0  0
 97100  2  0  0  0  0
 66 98  1  0  0  0  0
 98 99  2  0  0  0  0
100120  1  0  0  0  0
100101  1  0  0  0  0
101121  1  0  0  0  0
 93102  2  0  0  0  0
102122  1  0  0  0  0
102103  1  0  0  0  0
103104  1  0  0  0  0
104112  1  0  0  0  0
104105  2  0  0  0  0
105106  1  0  0  0  0
106107  2  0  0  0  0
107108  1  0  0  0  0
107111  1  0  0  0  0
108125  1  0  0  0  0
108110  1  0  0  0  0
109126  1  0  0  0  0
108109  1  0  0  0  0
110129  1  0  0  0  0
110143  1  0  0  0  0
111112  2  0  0  0  0
111130  1  0  0  0  0
112131  1  0  0  0  0
 91113  1  0  0  0  0
103113  2  0  0  0  0
 89114  1  0  0  0  0
 89115  1  0  0  0  0
 95118  1  0  0  0  0
 96119  1  0  0  0  0
105123  1  0  0  0  0
106124  1  0  0  0  0
109127  1  0  0  0  0
109128  1  0  0  0  0
113132  1  0  0  0  0
133134  1  0  0  0  0
133136  1  0  0  0  0
133135  1  0  0  0  0
133137  1  0  0  0  0
138147  1  0  0  0  0
138139  1  0  0  0  0
138145  1  0  0  0  0
139141  1  0  0  0  0
140149  1  0  0  0  0
139140  1  0  0  0  0
140150  1  0  0  0  0
141151  1  0  0  0  0
141152  1  0  0  0  0
141153  1  0  0  0  0
142143  1  0  0  0  0
139142  1  0  0  0  0
143144  2  0  0  0  0
138146  1  0  0  0  0
140148  1  0  0  0  0
M  END
> <atom.dprop.PartialCharge>
0.109750 -0.324840 0.120380 -0.190520 -0.009070 -0.002940 -0.127510 -0.065990 -0.126420 0.646300 -0.544940 -0.065990 -0.127510 -0.140630 -0.009890 -0.032470 -0.116580 -0.120790 -0.098710 0.152610 -0.108030 -0.572040 -0.120790 -0.116580 -0.139240 0.046160 0.046160 0.046160 0.149570 0.138080 0.150090 0.150090 0.138080 0.140550 0.138520 0.135960 0.084440 0.045800 0.045800 0.045800 0.313720 0.135960 0.138520 0.153140 0.112540 -0.326720 0.126160 -0.189160 -0.009650 -0.013210 -0.129400 -0.090770 -0.139860 0.675500 -0.608110 -0.090770 -0.129400 -0.142050 -0.006270 -0.033650 -0.116570 -0.121040 -0.093530 0.149530 -0.109500 -0.571420 -0.121040 -0.116570 -0.138730 0.046250 0.046250 0.046250 0.143770 0.139670 0.146290 0.146290 0.139670 0.138710 0.136970 0.135880 0.088290 0.045300 0.045300 0.045300 0.311900 0.135880 0.136970 0.154330 0.113580 -0.326420 0.125040 -0.137660 -0.011550 -0.015750 -0.127620 -0.092920 -0.139250 0.675890 -0.604870 -0.092920 -0.127620 -0.142140 -0.003440 -0.030910 -0.118350 -0.118200 -0.098780 0.164540 -0.109340 -0.562350 -0.118200 -0.118350 -0.188580 0.045420 0.045420 0.045420 0.155370 0.141860 0.147900 0.147900 0.141860 0.138650 0.137610 0.136770 0.085150 0.045670 0.045670 0.045670 0.330380 0.136770 0.137610 0.142170 0.126750 -0.438140 0.050030 0.050030 0.050030 -0.115560 0.189200 -0.115560 -0.115560 -0.451280 0.752110 -0.605500 0.052290 0.052290 0.052290 0.052290 0.052290 0.052290 0.052290 0.052290 0.052290

$$$$
