pmp_trimer.pdb
 OpenBabel09092515193D

153161  0  0  1  0  0  0  0  0999 V2000
    2.0760    4.9820   -0.1850 C   0  0  0  0  0  0  0  0  0  0  0  0
    0.8650    4.2420   -0.2320 O   0  0  0  0  0  0  0  0  0  0  0  0
    0.9620    2.8830   -0.1530 C   0  0  0  0  0  0  0  0  0  0  0  0
    2.1340    2.1400    0.0000 C   0  0  0  0  0  0  0  0  0  0  0  0
    2.1010    0.7380    0.0720 C   0  0  0  0  0  0  0  0  0  0  0  0
    3.3410   -0.0490    0.2380 C   0  0  0  0  0  0  0  0  0  0  0  0
    4.5050    0.2660   -0.4870 C   0  0  0  0  0  0  0  0  0  0  0  0
    5.6820   -0.4720   -0.3280 C   0  0  0  0  0  0  0  0  0  0  0  0
    5.7160   -1.5520    0.5570 C   0  0  0  0  0  0  0  0  0  0  0  0
    6.9440   -2.3880    0.6040 C   0  0  0  0  0  0  0  0  0  0  0  0
    7.9370   -2.1850   -0.0740 O   0  0  0  0  0  0  0  0  0  0  0  0
    4.5660   -1.8840    1.2810 C   0  0  0  0  0  0  0  0  0  0  0  0
    3.3960   -1.1390    1.1220 C   0  0  0  0  0  0  0  0  0  0  0  0
    0.8490    0.0960   -0.0100 C   0  0  0  0  0  0  0  0  0  0  0  0
   -0.3490    0.8190   -0.1690 C   0  0  0  0  0  0  0  0  0  0  0  0
   -1.6450    0.1350   -0.2550 C   0  0  0  0  0  0  0  0  0  0  0  0
   -1.7990   -1.0330   -1.0180 C   0  0  0  0  0  0  0  0  0  0  0  0
   -3.0300   -1.6800   -1.1030 C   0  0  0  0  0  0  0  0  0  0  0  0
   -4.1460   -1.1700   -0.4300 C   0  0  0  0  0  0  0  0  0  0  0  0
   -5.4540   -1.9200   -0.4780 C   0  0  2  0  0  0  0  0  0  0  0  0
   -6.4770   -1.1440   -1.3090 C   0  0  0  0  0  0  0  0  0  0  0  0
   -5.9890   -2.2600    0.8380 N   0  0  0  0  0  0  0  0  0  0  0  0
   -4.0080   -0.0020    0.3290 C   0  0  0  0  0  0  0  0  0  0  0  0
   -2.7710    0.6340    0.4210 C   0  0  0  0  0  0  0  0  0  0  0  0
   -0.2610    2.2150   -0.2350 C   0  0  0  0  0  0  0  0  0  0  0  0
    2.7210    4.7360   -1.0340 H   0  0  0  0  0  0  0  0  0  0  0  0
    1.8190    6.0420   -0.2560 H   0  0  0  0  0  0  0  0  0  0  0  0
    2.5960    4.8270    0.7670 H   0  0  0  0  0  0  0  0  0  0  0  0
    3.0930    2.6430    0.0820 H   0  0  0  0  0  0  0  0  0  0  0  0
    4.4990    1.0800   -1.2090 H   0  0  0  0  0  0  0  0  0  0  0  0
    6.5590   -0.2170   -0.9200 H   0  0  0  0  0  0  0  0  0  0  0  0
    4.5530   -2.7340    1.9590 H   0  0  0  0  0  0  0  0  0  0  0  0
    2.5190   -1.4270    1.7010 H   0  0  0  0  0  0  0  0  0  0  0  0
    0.8040   -0.9980    0.0450 H   0  0  0  0  0  0  0  0  0  0  0  0
   -0.9530   -1.4590   -1.5530 H   0  0  0  0  0  0  0  0  0  0  0  0
   -3.1030   -2.6020   -1.6750 H   0  0  0  0  0  0  0  0  0  0  0  0
   -5.2930   -2.8870   -0.9730 H   0  0  0  0  0  0  0  0  0  0  0  0
   -6.7120   -0.1720   -0.8620 H   0  0  0  0  0  0  0  0  0  0  0  0
   -6.0970   -0.9640   -2.3220 H   0  0  0  0  0  0  0  0  0  0  0  0
   -7.4150   -1.7020   -1.3960 H   0  0  0  0  0  0  0  0  0  0  0  0
   -6.9590   -2.5210    0.8050 H   0  0  0  0  0  0  0  0  0  0  0  0
   -4.8500    0.3830    0.8980 H   0  0  0  0  0  0  0  0  0  0  0  0
   -2.6900    1.5120    1.0580 H   0  0  0  0  0  0  0  0  0  0  0  0
   -1.1640    2.8090   -0.3670 H   0  0  0  0  0  0  0  0  0  0  0  0
   -4.3810  -11.5870    3.5260 C   0  0  0  0  0  0  0  0  0  0  0  0
   -5.7170  -11.6770    4.0000 O   0  0  0  0  0  0  0  0  0  0  0  0
   -6.4550  -10.5280    3.9970 C   0  0  0  0  0  0  0  0  0  0  0  0
   -6.0350   -9.2750    3.5500 C   0  0  0  0  0  0  0  0  0  0  0  0
   -6.8970   -8.1680    3.5990 C   0  0  0  0  0  0  0  0  0  0  0  0
   -6.4760   -6.8370    3.1340 C   0  0  0  0  0  0  0  0  0  0  0  0
   -5.2250   -6.3090    3.4720 C   0  0  0  0  0  0  0  0  0  0  0  0
   -4.8430   -5.0420    3.0270 C   0  0  0  0  0  0  0  0  0  0  0  0
   -5.7090   -4.2680    2.2410 C   0  0  0  0  0  0  0  0  0  0  0  0
   -5.1810   -2.9830    1.7070 C   0  0  0  0  0  0  0  0  0  0  0  0
   -4.0380   -2.6560    2.0050 O   0  0  0  0  0  0  0  0  0  0  0  0
   -6.9620   -4.7830    1.9040 C   0  0  0  0  0  0  0  0  0  0  0  0
   -7.3350   -6.0530    2.3440 C   0  0  0  0  0  0  0  0  0  0  0  0
   -8.1920   -8.3530    4.1070 C   0  0  0  0  0  0  0  0  0  0  0  0
   -8.6390   -9.5980    4.5640 C   0  0  0  0  0  0  0  0  0  0  0  0
   -9.9950   -9.7600    5.1050 C   0  0  0  0  0  0  0  0  0  0  0  0
  -10.5510   -8.7940    5.9600 C   0  0  0  0  0  0  0  0  0  0  0  0
  -11.8360   -8.9450    6.4740 C   0  0  0  0  0  0  0  0  0  0  0  0
  -12.5960  -10.0740    6.1470 C   0  0  0  0  0  0  0  0  0  0  0  0
  -14.0100  -10.1880    6.6560 C   0  0  2  0  0  0  0  0  0  0  0  0
  -14.1030  -11.2860    7.7150 C   0  0  0  0  0  0  0  0  0  0  0  0
  -14.9970  -10.3810    5.5990 N   0  0  0  0  0  0  0  0  0  0  0  0
  -12.0520  -11.0430    5.2960 C   0  0  0  0  0  0  0  0  0  0  0  0
  -10.7730  -10.8790    4.7730 C   0  0  0  0  0  0  0  0  0  0  0  0
   -7.7490  -10.6770    4.4980 C   0  0  0  0  0  0  0  0  0  0  0  0
   -3.7870  -10.9090    4.1470 H   0  0  0  0  0  0  0  0  0  0  0  0
   -3.9360  -12.5840    3.6000 H   0  0  0  0  0  0  0  0  0  0  0  0
   -4.3550  -11.2880    2.4730 H   0  0  0  0  0  0  0  0  0  0  0  0
   -5.0380   -9.1400    3.1440 H   0  0  0  0  0  0  0  0  0  0  0  0
   -4.5300   -6.8750    4.0880 H   0  0  0  0  0  0  0  0  0  0  0  0
   -3.8520   -4.6700    3.2820 H   0  0  0  0  0  0  0  0  0  0  0  0
   -7.6700   -4.2480    1.2830 H   0  0  0  0  0  0  0  0  0  0  0  0
   -8.3100   -6.4370    2.0470 H   0  0  0  0  0  0  0  0  0  0  0  0
   -8.8730   -7.5030    4.1470 H   0  0  0  0  0  0  0  0  0  0  0  0
   -9.9890   -7.9040    6.2320 H   0  0  0  0  0  0  0  0  0  0  0  0
  -12.2490   -8.1610    7.1030 H   0  0  0  0  0  0  0  0  0  0  0  0
  -14.2950   -9.2410    7.1360 H   0  0  0  0  0  0  0  0  0  0  0  0
  -13.8650  -12.2720    7.3030 H   0  0  0  0  0  0  0  0  0  0  0  0
  -13.4060  -11.0890    8.5390 H   0  0  0  0  0  0  0  0  0  0  0  0
  -15.1130  -11.3380    8.1360 H   0  0  0  0  0  0  0  0  0  0  0  0
  -15.8760  -10.7240    5.9450 H   0  0  0  0  0  0  0  0  0  0  0  0
  -12.6480  -11.8990    4.9900 H   0  0  0  0  0  0  0  0  0  0  0  0
  -10.4000  -11.6230    4.0720 H   0  0  0  0  0  0  0  0  0  0  0  0
   -8.0560  -11.6570    4.8560 H   0  0  0  0  0  0  0  0  0  0  0  0
  -19.9410   -2.2260    3.2130 C   0  0  0  0  0  0  0  0  0  0  0  0
  -21.1470   -2.9750    3.1690 O   0  0  0  0  0  0  0  0  0  0  0  0
  -21.0460   -4.3290    3.3250 C   0  0  0  0  0  0  0  0  0  0  0  0
  -19.8750   -5.0510    3.5370 C   0  0  0  0  0  0  0  0  0  0  0  0
  -19.9100   -6.4510    3.6740 C   0  0  0  0  0  0  0  0  0  0  0  0
  -18.6880   -7.2380    3.8890 C   0  0  0  0  0  0  0  0  0  0  0  0
  -17.5240   -6.9910    3.1480 C   0  0  0  0  0  0  0  0  0  0  0  0
  -16.3720   -7.7460    3.3620 C   0  0  0  0  0  0  0  0  0  0  0  0
  -16.3560   -8.7730    4.3170 C   0  0  0  0  0  0  0  0  0  0  0  0
  -15.0520   -9.4400    4.5780 C   0  0  0  0  0  0  0  0  0  0  0  0
  -14.0760   -9.0740    3.9320 O   0  0  0  0  0  0  0  0  0  0  0  0
  -17.5130   -9.0370    5.0510 C   0  0  0  0  0  0  0  0  0  0  0  0
  -18.6600   -8.2720    4.8380 C   0  0  0  0  0  0  0  0  0  0  0  0
  -21.1570   -7.0980    3.6030 C   0  0  0  0  0  0  0  0  0  0  0  0
  -22.3470   -6.3900    3.3920 C   0  0  0  0  0  0  0  0  0  0  0  0
  -23.6380   -7.0930    3.3060 C   0  0  0  0  0  0  0  0  0  0  0  0
  -23.7570   -8.2970    2.5930 C   0  0  0  0  0  0  0  0  0  0  0  0
  -24.9700   -8.9740    2.5260 C   0  0  0  0  0  0  0  0  0  0  0  0
  -26.1030   -8.4560    3.1640 C   0  0  0  0  0  0  0  0  0  0  0  0
  -27.3810   -9.2630    3.1720 C   0  0  2  0  0  0  0  0  0  0  0  0
  -28.4270   -8.5510    2.3100 C   0  0  0  0  0  0  0  0  0  0  0  0
  -27.8810   -9.5510    4.5130 N   0  0  0  0  0  0  0  0  0  0  0  0
  -26.0010   -7.2470    3.8650 C   0  0  0  0  0  0  0  0  0  0  0  0
  -24.7800   -6.5830    3.9440 C   0  0  0  0  0  0  0  0  0  0  0  0
  -22.2660   -5.0010    3.2560 C   0  0  0  0  0  0  0  0  0  0  0  0
  -19.2630   -2.5200    2.4050 H   0  0  0  0  0  0  0  0  0  0  0  0
  -20.2000   -1.1720    3.0650 H   0  0  0  0  0  0  0  0  0  0  0  0
  -19.4570   -2.3170    4.1910 H   0  0  0  0  0  0  0  0  0  0  0  0
  -18.9160   -4.5460    3.6050 H   0  0  0  0  0  0  0  0  0  0  0  0
  -17.4990   -6.2080    2.3940 H   0  0  0  0  0  0  0  0  0  0  0  0
  -15.4720   -7.5090    2.7950 H   0  0  0  0  0  0  0  0  0  0  0  0
  -17.5630   -9.8020    5.8160 H   0  0  0  0  0  0  0  0  0  0  0  0
  -19.5400   -8.4830    5.4460 H   0  0  0  0  0  0  0  0  0  0  0  0
  -21.1970   -8.1810    3.7110 H   0  0  0  0  0  0  0  0  0  0  0  0
  -22.8930   -8.7360    2.1000 H   0  0  0  0  0  0  0  0  0  0  0  0
  -25.0140   -9.9310    2.0110 H   0  0  0  0  0  0  0  0  0  0  0  0
  -27.1910  -10.2470    2.7220 H   0  0  0  0  0  0  0  0  0  0  0  0
  -28.6920   -7.5680    2.7150 H   0  0  0  0  0  0  0  0  0  0  0  0
  -28.0460   -8.3960    1.2930 H   0  0  0  0  0  0  0  0  0  0  0  0
  -29.3480   -9.1380    2.2380 H   0  0  0  0  0  0  0  0  0  0  0  0
  -28.8370   -9.8680    4.5670 H   0  0  0  0  0  0  0  0  0  0  0  0
  -26.8600   -6.8490    4.4010 H   0  0  0  0  0  0  0  0  0  0  0  0
  -24.7190   -5.6770    4.5430 H   0  0  0  0  0  0  0  0  0  0  0  0
  -23.1660   -4.4200    3.0750 H   0  0  0  0  0  0  0  0  0  0  0  0
    7.1760   -4.6920    0.7810 C   0  0  0  0  0  0  0  0  0  0  0  0
    6.6980   -3.4830    1.3610 O   0  0  0  0  0  0  0  0  0  0  0  0
    6.4580   -4.9950    0.0120 H   0  0  0  0  0  0  0  0  0  0  0  0
    7.1940   -5.4620    1.5550 H   0  0  0  0  0  0  0  0  0  0  0  0
    8.1750   -4.5940    0.3470 H   0  0  0  0  0  0  0  0  0  0  0  0
  -23.5000   -9.7940    5.9620 C   0  0  0  0  0  0  0  0  0  0  0  0
  -24.8250  -10.5080    6.2780 C   0  0  0  0  0  0  0  0  0  0  0  0
  -24.6870  -11.9810    5.8940 C   0  0  0  0  0  0  0  0  0  0  0  0
  -25.1220  -10.3100    7.7660 C   0  0  0  0  0  0  0  0  0  0  0  0
  -25.8170   -9.8900    5.4270 O   0  0  0  0  0  0  0  0  0  0  0  0
  -27.1320  -10.1790    5.4820 C   0  0  0  0  0  0  0  0  0  0  0  0
  -27.6660  -10.9160    6.3050 O   0  0  0  0  0  0  0  0  0  0  0  0
  -22.6700  -10.1940    6.5540 H   0  0  0  0  0  0  0  0  0  0  0  0
  -23.2380   -9.9030    4.9050 H   0  0  0  0  0  0  0  0  0  0  0  0
  -23.5760   -8.7180    6.1590 H   0  0  0  0  0  0  0  0  0  0  0  0
  -24.5590  -12.0820    4.8090 H   0  0  0  0  0  0  0  0  0  0  0  0
  -25.5840  -12.5500    6.1560 H   0  0  0  0  0  0  0  0  0  0  0  0
  -23.8290  -12.4470    6.3890 H   0  0  0  0  0  0  0  0  0  0  0  0
  -25.2820   -9.2490    7.9920 H   0  0  0  0  0  0  0  0  0  0  0  0
  -26.0220  -10.8420    8.0840 H   0  0  0  0  0  0  0  0  0  0  0  0
  -24.2930  -10.6720    8.3840 H   0  0  0  0  0  0  0  0  0  0  0  0
  1 28  1  0  0  0  0
  2  1  1  0  0  0  0
  2  3  1  0  0  0  0
  3  4  1  0  0  0  0
  4  5  2  0  0  0  0
  4 29  1  0  0  0  0
  5  6  1  0  0  0  0
  6 13  1  0  0  0  0
  7  8  1  0  0  0  0
  7  6  2  0  0  0  0
  8  9  2  0  0  0  0
  9 10  1  0  0  0  0
  9 12  1  0  0  0  0
 10134  1  0  0  0  0
 11 10  2  0  0  0  0
 12 32  1  0  0  0  0
 13 12  2  0  0  0  0
 13 33  1  0  0  0  0
 14 34  1  0  0  0  0
 14  5  1  0  0  0  0
 15 14  2  0  0  0  0
 16 15  1  0  0  0  0
 16 24  1  0  0  0  0
 17 16  2  0  0  0  0
 18 17  1  0  0  0  0
 18 19  2  0  0  0  0
 19 23  1  0  0  0  0
 20 37  1  6  0  0  0
 20 19  1  0  0  0  0
 20 22  1  0  0  0  0
 21 38  1  0  0  0  0
 21 20  1  0  0  0  0
 22 54  1  0  0  0  0
 23 24  2  0  0  0  0
 23 42  1  0  0  0  0
 24 43  1  0  0  0  0
 25 15  1  0  0  0  0
 25  3  2  0  0  0  0
 26  1  1  0  0  0  0
 27  1  1  0  0  0  0
 30  7  1  0  0  0  0
 31  8  1  0  0  0  0
 35 17  1  0  0  0  0
 36 18  1  0  0  0  0
 39 21  1  0  0  0  0
 40 21  1  0  0  0  0
 41 22  1  0  0  0  0
 44 25  1  0  0  0  0
 45 71  1  0  0  0  0
 45 46  1  0  0  0  0
 45 70  1  0  0  0  0
 47 46  1  0  0  0  0
 47 69  1  0  0  0  0
 48 49  1  0  0  0  0
 48 47  2  0  0  0  0
 49 58  2  0  0  0  0
 50 51  1  0  0  0  0
 50 49  1  0  0  0  0
 51 74  1  0  0  0  0
 52 75  1  0  0  0  0
 52 51  2  0  0  0  0
 53 52  1  0  0  0  0
 54 55  2  0  0  0  0
 54 53  1  0  0  0  0
 56 53  2  0  0  0  0
 56 57  1  0  0  0  0
 57 50  2  0  0  0  0
 58 78  1  0  0  0  0
 58 59  1  0  0  0  0
 59 60  1  0  0  0  0
 60 61  1  0  0  0  0
 61 79  1  0  0  0  0
 61 62  2  0  0  0  0
 62 80  1  0  0  0  0
 63 62  1  0  0  0  0
 63 64  1  0  0  0  0
 64 81  1  1  0  0  0
 64 65  1  0  0  0  0
 65 84  1  0  0  0  0
 65 83  1  0  0  0  0
 66 85  1  0  0  0  0
 66 64  1  0  0  0  0
 67 63  2  0  0  0  0
 68 60  2  0  0  0  0
 68 67  1  0  0  0  0
 69 59  2  0  0  0  0
 69 88  1  0  0  0  0
 72 45  1  0  0  0  0
 73 48  1  0  0  0  0
 76 56  1  0  0  0  0
 77 57  1  0  0  0  0
 82 65  1  0  0  0  0
 86 67  1  0  0  0  0
 87 68  1  0  0  0  0
 89116  1  0  0  0  0
 90 89  1  0  0  0  0
 90 91  1  0  0  0  0
 91 92  1  0  0  0  0
 92117  1  0  0  0  0
 92 93  2  0  0  0  0
 93 94  1  0  0  0  0
 94101  1  0  0  0  0
 95 96  1  0  0  0  0
 95 94  2  0  0  0  0
 96 97  2  0  0  0  0
 97 98  1  0  0  0  0
 97100  1  0  0  0  0
 98 66  1  0  0  0  0
 99 98  2  0  0  0  0
100120  1  0  0  0  0
101100  2  0  0  0  0
101121  1  0  0  0  0
102 93  1  0  0  0  0
102122  1  0  0  0  0
103102  2  0  0  0  0
104103  1  0  0  0  0
104112  1  0  0  0  0
105104  2  0  0  0  0
106105  1  0  0  0  0
106107  2  0  0  0  0
107108  1  0  0  0  0
107111  1  0  0  0  0
108125  1  6  0  0  0
108110  1  0  0  0  0
109126  1  0  0  0  0
109108  1  0  0  0  0
110129  1  0  0  0  0
110143  1  0  0  0  0
111112  2  0  0  0  0
111130  1  0  0  0  0
112131  1  0  0  0  0
113 91  2  0  0  0  0
113103  1  0  0  0  0
114 89  1  0  0  0  0
115 89  1  0  0  0  0
118 95  1  0  0  0  0
119 96  1  0  0  0  0
123105  1  0  0  0  0
124106  1  0  0  0  0
127109  1  0  0  0  0
128109  1  0  0  0  0
132113  1  0  0  0  0
133134  1  0  0  0  0
133136  1  0  0  0  0
135133  1  0  0  0  0
137133  1  0  0  0  0
138147  1  0  0  0  0
138139  1  0  0  0  0
138145  1  0  0  0  0
139141  1  0  0  0  0
140149  1  0  0  0  0
140139  1  0  0  0  0
140150  1  0  0  0  0
141151  1  0  0  0  0
141152  1  0  0  0  0
141153  1  0  0  0  0
142143  1  0  0  0  0
142139  1  0  0  0  0
143144  2  0  0  0  0
146138  1  0  0  0  0
148140  1  0  0  0  0
M  END
