pom_tetramer.pdb
  -OEChem-10012413563D

197208  0     1  0  0  0  0  0999 V2000
   -2.9260   -5.6430   -0.7590 C   0  0  0  0  0  0  0  0  0  0  0  0
   -1.8440   -4.7610   -1.0530 O   0  0  0  0  0  0  0  0  0  0  0  0
   -2.0000   -3.4400   -0.7180 C   0  0  0  0  0  0  0  0  0  0  0  0
   -3.1490   -2.8730   -0.1670 C   0  0  0  0  0  0  0  0  0  0  0  0
   -3.1110   -1.5740    0.3610 C   0  0  0  0  0  0  0  0  0  0  0  0
   -1.9370   -0.8000    0.3280 C   0  0  0  0  0  0  0  0  0  0  0  0
   -1.9340    0.5450    0.9440 C   0  0  0  0  0  0  0  0  0  0  0  0
   -0.9820    0.8930    1.9250 C   0  0  0  0  0  0  0  0  0  0  0  0
   -0.8010    2.2180    2.3090 C   0  0  0  0  0  0  0  0  0  0  0  0
   -1.5850    3.2010    1.7420 C   0  0  0  0  0  0  0  0  0  0  0  0
   -2.6690    2.8750    0.9060 C   0  0  0  0  0  0  0  0  0  0  0  0
   -3.6250    3.9130    0.3830 C   0  0  0  0  0  0  0  0  0  0  0  0
   -4.3780    3.6960   -0.5270 O   0  0  0  0  0  0  0  0  0  0  0  0
   -2.8160    1.5430    0.4890 C   0  0  0  0  0  0  0  0  0  0  0  0
   -0.7800   -1.3460   -0.2960 C   0  0  0  0  0  0  0  0  0  0  0  0
    0.4760   -0.5780   -0.3890 C   0  0  0  0  0  0  0  0  0  0  0  0
    1.6000   -0.9310    0.3660 C   0  0  0  0  0  0  0  0  0  0  0  0
    2.7500   -0.1390    0.3500 C   0  0  0  0  0  0  0  0  0  0  0  0
    2.8780    0.9280   -0.5460 C   0  0  0  0  0  0  0  0  0  0  0  0
    4.2070    1.6260   -0.7600 C   0  0  1  0  0  0  0  0  0  0  0  0
    4.7090    2.2980    0.5180 C   0  0  0  0  0  0  0  0  0  0  0  0
    5.2430    0.7840   -1.4020 N   0  0  0  0  0  0  0  0  0  0  0  0
    1.7430    1.3120   -1.2700 C   0  0  0  0  0  0  0  0  0  0  0  0
    0.5540    0.5820   -1.1690 C   0  0  0  0  0  0  0  0  0  0  0  0
   -0.8310   -2.6660   -0.8030 C   0  0  0  0  0  0  0  0  0  0  0  0
   -2.6190   -6.6560   -1.0400 H   0  0  0  0  0  0  0  0  0  0  0  0
   -3.1730   -5.6650    0.3080 H   0  0  0  0  0  0  0  0  0  0  0  0
   -3.8040   -5.3810   -1.3560 H   0  0  0  0  0  0  0  0  0  0  0  0
   -4.0560   -3.4520   -0.0170 H   0  0  0  0  0  0  0  0  0  0  0  0
   -3.9960   -1.1910    0.8670 H   0  0  0  0  0  0  0  0  0  0  0  0
   -0.3110    0.1430    2.3380 H   0  0  0  0  0  0  0  0  0  0  0  0
   -0.0150    2.4890    3.0090 H   0  0  0  0  0  0  0  0  0  0  0  0
   -1.3550    4.2400    1.9590 H   0  0  0  0  0  0  0  0  0  0  0  0
   -3.5810    1.2860   -0.2410 H   0  0  0  0  0  0  0  0  0  0  0  0
    1.6030   -1.8380    0.9610 H   0  0  0  0  0  0  0  0  0  0  0  0
    3.5870   -0.4360    0.9760 H   0  0  0  0  0  0  0  0  0  0  0  0
    4.0430    2.4310   -1.4920 H   0  0  0  0  0  0  0  0  0  0  0  0
    5.5970    2.9040    0.3100 H   0  0  0  0  0  0  0  0  0  0  0  0
    4.9820    1.5640    1.2840 H   0  0  0  0  0  0  0  0  0  0  0  0
    3.9400    2.9530    0.9410 H   0  0  0  0  0  0  0  0  0  0  0  0
    5.9690    1.4130   -1.7220 H   0  0  0  0  0  0  0  0  0  0  0  0
    1.7630    2.1820   -1.9220 H   0  0  0  0  0  0  0  0  0  0  0  0
   -0.3270    0.9240   -1.7090 H   0  0  0  0  0  0  0  0  0  0  0  0
    0.0800   -3.1360   -1.1720 H   0  0  0  0  0  0  0  0  0  0  0  0
    8.4190   -8.0400    4.1590 C   0  0  0  0  0  0  0  0  0  0  0  0
    7.1330   -7.4520    4.3520 O   0  0  0  0  0  0  0  0  0  0  0  0
    6.7780   -6.4170    3.5250 C   0  0  0  0  0  0  0  0  0  0  0  0
    7.5880   -5.8490    2.5440 C   0  0  0  0  0  0  0  0  0  0  0  0
    7.0330   -4.9590    1.6100 C   0  0  0  0  0  0  0  0  0  0  0  0
    5.6700   -4.5940    1.6340 C   0  0  0  0  0  0  0  0  0  0  0  0
    5.1610   -3.7000    0.5630 C   0  0  0  0  0  0  0  0  0  0  0  0
    4.0650   -4.0360   -0.2520 C   0  0  0  0  0  0  0  0  0  0  0  0
    3.6160   -3.1730   -1.2570 C   0  0  0  0  0  0  0  0  0  0  0  0
    4.2700   -1.9620   -1.4820 C   0  0  0  0  0  0  0  0  0  0  0  0
    5.3200   -1.5730   -0.6460 C   0  0  0  0  0  0  0  0  0  0  0  0
    5.9010   -0.2020   -0.6900 C   0  0  0  0  0  0  0  0  0  0  0  0
    6.9650    0.0510   -0.1320 O   0  0  0  0  0  0  0  0  0  0  0  0
    5.7740   -2.4530    0.3490 C   0  0  0  0  0  0  0  0  0  0  0  0
    4.8600   -5.1120    2.6640 C   0  0  0  0  0  0  0  0  0  0  0  0
    3.4350   -4.7720    2.7950 C   0  0  0  0  0  0  0  0  0  0  0  0
    2.4400   -5.7110    2.5200 C   0  0  0  0  0  0  0  0  0  0  0  0
    1.1000   -5.3420    2.6010 C   0  0  0  0  0  0  0  0  0  0  0  0
    0.7190   -4.1310    3.1700 C   0  0  0  0  0  0  0  0  0  0  0  0
   -0.7230   -3.7820    3.4770 C   0  0  1  0  0  0  0  0  0  0  0  0
   -1.5570   -3.9230    2.2420 C   0  0  0  0  0  0  0  0  0  0  0  0
   -1.3440   -4.5110    4.5820 N   0  0  0  0  0  0  0  0  0  0  0  0
    1.7260   -3.1490    3.3570 C   0  0  0  0  0  0  0  0  0  0  0  0
    3.0510   -3.4810    3.1490 C   0  0  0  0  0  0  0  0  0  0  0  0
    5.4280   -6.0320    3.5940 C   0  0  0  0  0  0  0  0  0  0  0  0
    8.5240   -8.8590    4.8780 H   0  0  0  0  0  0  0  0  0  0  0  0
    8.5350   -8.4750    3.1580 H   0  0  0  0  0  0  0  0  0  0  0  0
    9.2090   -7.3130    4.3610 H   0  0  0  0  0  0  0  0  0  0  0  0
    8.6160   -6.1630    2.3940 H   0  0  0  0  0  0  0  0  0  0  0  0
    7.6700   -4.6020    0.7980 H   0  0  0  0  0  0  0  0  0  0  0  0
    3.5220   -4.9670   -0.0980 H   0  0  0  0  0  0  0  0  0  0  0  0
    2.7200   -3.4120   -1.8260 H   0  0  0  0  0  0  0  0  0  0  0  0
    3.8770   -1.2800   -2.2320 H   0  0  0  0  0  0  0  0  0  0  0  0
    6.5870   -2.1400    1.0040 H   0  0  0  0  0  0  0  0  0  0  0  0
    2.6930   -6.7320    2.2710 H   0  0  0  0  0  0  0  0  0  0  0  0
    0.3540   -6.0840    2.3260 H   0  0  0  0  0  0  0  0  0  0  0  0
   -0.7710   -2.7240    3.7750 H   0  0  0  0  0  0  0  0  0  0  0  0
   -2.5800   -3.5720    2.4060 H   0  0  0  0  0  0  0  0  0  0  0  0
   -1.6060   -4.9460    1.8560 H   0  0  0  0  0  0  0  0  0  0  0  0
   -1.0610   -3.3110    1.5060 H   0  0  0  0  0  0  0  0  0  0  0  0
   -2.2120   -4.0280    4.7810 H   0  0  0  0  0  0  0  0  0  0  0  0
    1.4600   -2.1250    3.6350 H   0  0  0  0  0  0  0  0  0  0  0  0
    3.8180   -2.7090    3.2700 H   0  0  0  0  0  0  0  0  0  0  0  0
    4.7890   -6.5330    4.3230 H   0  0  0  0  0  0  0  0  0  0  0  0
   -1.8510  -15.2990    3.4040 C   0  0  0  0  0  0  0  0  0  0  0  0
   -0.8800  -14.5300    2.6990 O   0  0  0  0  0  0  0  0  0  0  0  0
   -0.8120  -13.1920    2.9790 C   0  0  0  0  0  0  0  0  0  0  0  0
   -1.6460  -12.4990    3.8540 C   0  0  0  0  0  0  0  0  0  0  0  0
   -1.3300  -11.1870    4.2300 C   0  0  0  0  0  0  0  0  0  0  0  0
   -0.1940  -10.5180    3.7310 C   0  0  0  0  0  0  0  0  0  0  0  0
    0.0910   -9.1530    4.2340 C   0  0  0  0  0  0  0  0  0  0  0  0
    1.3230   -8.7980    4.8210 C   0  0  0  0  0  0  0  0  0  0  0  0
    1.5490   -7.5110    5.3110 C   0  0  0  0  0  0  0  0  0  0  0  0
    0.5350   -6.5620    5.2600 C   0  0  0  0  0  0  0  0  0  0  0  0
   -0.6760   -6.8720    4.6340 C   0  0  0  0  0  0  0  0  0  0  0  0
   -1.7020   -5.8320    4.3860 C   0  0  0  0  0  0  0  0  0  0  0  0
   -2.8360   -6.1210    4.0160 O   0  0  0  0  0  0  0  0  0  0  0  0
   -0.8940   -8.1590    4.1300 C   0  0  0  0  0  0  0  0  0  0  0  0
    0.6280  -11.2020    2.8000 C   0  0  0  0  0  0  0  0  0  0  0  0
    1.8130  -10.5690    2.2080 C   0  0  0  0  0  0  0  0  0  0  0  0
    3.1050  -10.9810    2.5450 C   0  0  0  0  0  0  0  0  0  0  0  0
    4.2130  -10.3310    2.0040 C   0  0  0  0  0  0  0  0  0  0  0  0
    4.0670   -9.3920    0.9740 C   0  0  0  0  0  0  0  0  0  0  0  0
    5.2530   -8.8580    0.1890 C   0  0  1  0  0  0  0  0  0  0  0  0
    6.2110   -8.1960    1.1300 C   0  0  0  0  0  0  0  0  0  0  0  0
    5.9780   -9.7970   -0.6720 N   0  0  0  0  0  0  0  0  0  0  0  0
    2.7790   -8.9200    0.7060 C   0  0  0  0  0  0  0  0  0  0  0  0
    1.6670   -9.4880    1.3340 C   0  0  0  0  0  0  0  0  0  0  0  0
    0.3010  -12.5310    2.4380 C   0  0  0  0  0  0  0  0  0  0  0  0
   -1.7260  -16.3460    3.1080 H   0  0  0  0  0  0  0  0  0  0  0  0
   -1.7130  -15.2530    4.4910 H   0  0  0  0  0  0  0  0  0  0  0  0
   -2.8600  -14.9870    3.1250 H   0  0  0  0  0  0  0  0  0  0  0  0
   -2.4800  -12.9800    4.3560 H   0  0  0  0  0  0  0  0  0  0  0  0
   -1.9480  -10.7000    4.9850 H   0  0  0  0  0  0  0  0  0  0  0  0
    2.1340   -9.5200    4.8890 H   0  0  0  0  0  0  0  0  0  0  0  0
    2.5290   -7.2240    5.6850 H   0  0  0  0  0  0  0  0  0  0  0  0
    0.7400   -5.5490    5.6000 H   0  0  0  0  0  0  0  0  0  0  0  0
   -1.8290   -8.3810    3.6180 H   0  0  0  0  0  0  0  0  0  0  0  0
    3.2650  -11.8170    3.2170 H   0  0  0  0  0  0  0  0  0  0  0  0
    5.2000  -10.6430    2.3380 H   0  0  0  0  0  0  0  0  0  0  0  0
    4.8860   -8.0790   -0.4940 H   0  0  0  0  0  0  0  0  0  0  0  0
    7.0130   -7.6820    0.5950 H   0  0  0  0  0  0  0  0  0  0  0  0
    6.6680   -8.8860    1.8470 H   0  0  0  0  0  0  0  0  0  0  0  0
    5.6110   -7.4890    1.6790 H   0  0  0  0  0  0  0  0  0  0  0  0
    6.5980   -9.2310   -1.2400 H   0  0  0  0  0  0  0  0  0  0  0  0
    2.6200   -8.0810    0.0330 H   0  0  0  0  0  0  0  0  0  0  0  0
    0.6810   -9.0840    1.1410 H   0  0  0  0  0  0  0  0  0  0  0  0
    0.9820  -13.0980    1.8040 H   0  0  0  0  0  0  0  0  0  0  0  0
   10.3020  -18.5190    4.2230 C   0  0  0  0  0  0  0  0  0  0  0  0
    9.0880  -17.9580    4.7020 O   0  0  0  0  0  0  0  0  0  0  0  0
    8.5230  -16.9740    3.9400 C   0  0  0  0  0  0  0  0  0  0  0  0
    8.9780  -16.5160    2.7100 C   0  0  0  0  0  0  0  0  0  0  0  0
    8.2570  -15.5380    2.0180 C   0  0  0  0  0  0  0  0  0  0  0  0
    7.0770  -14.9680    2.5390 C   0  0  0  0  0  0  0  0  0  0  0  0
    6.2980  -14.0480    1.6860 C   0  0  0  0  0  0  0  0  0  0  0  0
    4.9570  -14.3120    1.3390 C   0  0  0  0  0  0  0  0  0  0  0  0
    4.2410  -13.4640    0.4890 C   0  0  0  0  0  0  0  0  0  0  0  0
    4.8690  -12.3560   -0.0620 C   0  0  0  0  0  0  0  0  0  0  0  0
    6.1760  -12.0340    0.3200 C   0  0  0  0  0  0  0  0  0  0  0  0
    6.7930  -10.7470   -0.0830 C   0  0  0  0  0  0  0  0  0  0  0  0
    7.9860  -10.5210    0.0950 O   0  0  0  0  0  0  0  0  0  0  0  0
    6.8860  -12.8800    1.1820 C   0  0  0  0  0  0  0  0  0  0  0  0
    6.6640  -15.3730    3.8260 C   0  0  0  0  0  0  0  0  0  0  0  0
    5.4690  -14.8180    4.4690 C   0  0  0  0  0  0  0  0  0  0  0  0
    4.3760  -15.6480    4.6410 C   0  0  0  0  0  0  0  0  0  0  0  0
    3.1930  -15.1370    5.1460 C   0  0  0  0  0  0  0  0  0  0  0  0
    3.1110  -13.8820    5.7370 C   0  0  0  0  0  0  0  0  0  0  0  0
    1.8690  -13.4750    6.5100 C   0  0  1  0  0  0  0  0  0  0  0  0
    0.6520  -13.5700    5.6330 C   0  0  0  0  0  0  0  0  0  0  0  0
    1.5810  -14.1850    7.7610 N   0  0  0  0  0  0  0  0  0  0  0  0
    4.1730  -13.0100    5.4900 C   0  0  0  0  0  0  0  0  0  0  0  0
    5.3290  -13.4680    4.8310 C   0  0  0  0  0  0  0  0  0  0  0  0
    7.3750  -16.3940    4.4910 C   0  0  0  0  0  0  0  0  0  0  0  0
   10.6220  -19.2790    4.9420 H   0  0  0  0  0  0  0  0  0  0  0  0
   10.1530  -19.0160    3.2570 H   0  0  0  0  0  0  0  0  0  0  0  0
   11.0870  -17.7580    4.1630 H   0  0  0  0  0  0  0  0  0  0  0  0
    9.8710  -16.9210    2.2390 H   0  0  0  0  0  0  0  0  0  0  0  0
    8.6120  -15.2300    1.0380 H   0  0  0  0  0  0  0  0  0  0  0  0
    4.4400  -15.1780    1.7450 H   0  0  0  0  0  0  0  0  0  0  0  0
    3.1870  -13.6400    0.2900 H   0  0  0  0  0  0  0  0  0  0  0  0
    4.2890  -11.6800   -0.6870 H   0  0  0  0  0  0  0  0  0  0  0  0
    7.8940  -12.6080    1.4910 H   0  0  0  0  0  0  0  0  0  0  0  0
    4.4230  -16.6890    4.3390 H   0  0  0  0  0  0  0  0  0  0  0  0
    2.3130  -15.7580    5.0800 H   0  0  0  0  0  0  0  0  0  0  0  0
    1.9790  -12.4180    6.7870 H   0  0  0  0  0  0  0  0  0  0  0  0
   -0.2220  -13.1170    6.1110 H   0  0  0  0  0  0  0  0  0  0  0  0
    0.3790  -14.5980    5.3650 H   0  0  0  0  0  0  0  0  0  0  0  0
    0.9040  -13.0450    4.7270 H   0  0  0  0  0  0  0  0  0  0  0  0
    0.9790  -13.6230    8.3480 H   0  0  0  0  0  0  0  0  0  0  0  0
    4.0980  -11.9580    5.7520 H   0  0  0  0  0  0  0  0  0  0  0  0
    6.1210  -12.7620    4.5940 H   0  0  0  0  0  0  0  0  0  0  0  0
    7.0180  -16.7680    5.4460 H   0  0  0  0  0  0  0  0  0  0  0  0
   -3.7990    5.2660    2.3750 C   0  0  0  0  0  0  0  0  0  0  0  0
   -3.4850    5.1310    0.9710 O   0  0  0  0  0  0  0  0  0  0  0  0
   -4.6810    4.6860    2.6440 H   0  0  0  0  0  0  0  0  0  0  0  0
   -3.9660    6.3210    2.5670 H   0  0  0  0  0  0  0  0  0  0  0  0
   -2.9520    4.9650    2.9980 H   0  0  0  0  0  0  0  0  0  0  0  0
    2.5860  -18.3210    5.9120 C   0  0  0  0  0  0  0  0  0  0  0  0
    1.4520  -17.7070    6.7620 C   0  0  0  0  0  0  0  0  0  0  0  0
    0.1820  -17.7490    5.9040 C   0  0  0  0  0  0  0  0  0  0  0  0
    1.3450  -18.5060    8.0520 C   0  0  0  0  0  0  0  0  0  0  0  0
    1.8410  -16.3440    7.0860 O   0  0  0  0  0  0  0  0  0  0  0  0
    1.0670  -15.4650    7.7550 C   0  0  0  0  0  0  0  0  0  0  0  0
   -0.0040  -15.7160    8.2930 O   0  0  0  0  0  0  0  0  0  0  0  0
    2.4480  -19.3960    5.7580 H   0  0  0  0  0  0  0  0  0  0  0  0
    2.6140  -17.8840    4.9070 H   0  0  0  0  0  0  0  0  0  0  0  0
    3.5690  -18.1500    6.3660 H   0  0  0  0  0  0  0  0  0  0  0  0
    0.2970  -17.1290    5.0040 H   0  0  0  0  0  0  0  0  0  0  0  0
   -0.6920  -17.3690    6.4350 H   0  0  0  0  0  0  0  0  0  0  0  0
   -0.0330  -18.7710    5.5740 H   0  0  0  0  0  0  0  0  0  0  0  0
    2.2410  -18.3450    8.6620 H   0  0  0  0  0  0  0  0  0  0  0  0
    0.4890  -18.1820    8.6480 H   0  0  0  0  0  0  0  0  0  0  0  0
    1.2440  -19.5750    7.8500 H   0  0  0  0  0  0  0  0  0  0  0  0
  1 27  1  0  0  0  0
  1  2  1  0  0  0  0
  2  3  1  0  0  0  0
  3  4  2  0  0  0  0
  4 29  1  0  0  0  0
  4  5  1  0  0  0  0
  5 30  1  0  0  0  0
  5  6  2  0  0  0  0
  6  7  1  0  0  0  0
  7  8  2  0  0  0  0
  8  9  1  0  0  0  0
  8 31  1  0  0  0  0
  9 32  1  0  0  0  0
 10 33  1  0  0  0  0
  9 10  2  0  0  0  0
 10 11  1  0  0  0  0
 11 12  1  0  0  0  0
 12178  1  0  0  0  0
 12 13  2  0  0  0  0
 11 14  2  0  0  0  0
  7 14  1  0  0  0  0
  6 15  1  0  0  0  0
 15 16  1  0  0  0  0
 16 17  2  0  0  0  0
 17 35  1  0  0  0  0
 17 18  1  0  0  0  0
 18 36  1  0  0  0  0
 18 19  2  0  0  0  0
 20 37  1  0  0  0  0
 19 20  1  0  0  0  0
 20 21  1  0  0  0  0
 21 40  1  0  0  0  0
 21 39  1  0  0  0  0
 20 22  1  0  0  0  0
 22 56  1  0  0  0  0
 23 24  2  0  0  0  0
 19 23  1  0  0  0  0
 16 24  1  0  0  0  0
  3 25  1  0  0  0  0
 15 25  2  0  0  0  0
  1 26  1  0  0  0  0
  1 28  1  0  0  0  0
 14 34  1  0  0  0  0
 21 38  1  0  0  0  0
 22 41  1  0  0  0  0
 23 42  1  0  0  0  0
 24 43  1  0  0  0  0
 25 44  1  0  0  0  0
 45 46  1  0  0  0  0
 45 72  1  0  0  0  0
 45 70  1  0  0  0  0
 47 69  2  0  0  0  0
 46 47  1  0  0  0  0
 47 48  1  0  0  0  0
 49 50  1  0  0  0  0
 48 49  2  0  0  0  0
 50 59  2  0  0  0  0
 50 51  1  0  0  0  0
 52 75  1  0  0  0  0
 51 52  2  0  0  0  0
 52 53  1  0  0  0  0
 53 54  2  0  0  0  0
 54 55  1  0  0  0  0
 55 58  2  0  0  0  0
 55 56  1  0  0  0  0
 56 57  2  0  0  0  0
 51 58  1  0  0  0  0
 58 78  1  0  0  0  0
 59 60  1  0  0  0  0
 59 69  1  0  0  0  0
 60 68  2  0  0  0  0
 61 62  2  0  0  0  0
 60 61  1  0  0  0  0
 62 63  1  0  0  0  0
 63 67  2  0  0  0  0
 63 64  1  0  0  0  0
 64 81  1  0  0  0  0
 64 66  1  0  0  0  0
 65 82  1  0  0  0  0
 64 65  1  0  0  0  0
 66 85  1  0  0  0  0
 67 86  1  0  0  0  0
 68 87  1  0  0  0  0
 67 68  1  0  0  0  0
 69 88  1  0  0  0  0
 45 71  1  0  0  0  0
 48 73  1  0  0  0  0
 49 74  1  0  0  0  0
 53 76  1  0  0  0  0
 54 77  1  0  0  0  0
 61 79  1  0  0  0  0
 62 80  1  0  0  0  0
 65 83  1  0  0  0  0
 65 84  1  0  0  0  0
 89115  1  0  0  0  0
 90 91  1  0  0  0  0
 89 90  1  0  0  0  0
 91 92  2  0  0  0  0
 92 93  1  0  0  0  0
 92117  1  0  0  0  0
 93118  1  0  0  0  0
 93 94  2  0  0  0  0
 94 95  1  0  0  0  0
 95 96  2  0  0  0  0
 96119  1  0  0  0  0
 96 97  1  0  0  0  0
 97120  1  0  0  0  0
 97 98  2  0  0  0  0
 98121  1  0  0  0  0
 98 99  1  0  0  0  0
 66100  1  0  0  0  0
 99100  1  0  0  0  0
100101  2  0  0  0  0
 95102  1  0  0  0  0
 99102  2  0  0  0  0
 94103  1  0  0  0  0
104105  2  0  0  0  0
103104  1  0  0  0  0
105123  1  0  0  0  0
106124  1  0  0  0  0
105106  1  0  0  0  0
106107  2  0  0  0  0
108125  1  0  0  0  0
107108  1  0  0  0  0
108109  1  0  0  0  0
109128  1  0  0  0  0
109127  1  0  0  0  0
110144  1  0  0  0  0
108110  1  0  0  0  0
107111  1  0  0  0  0
111112  2  0  0  0  0
104112  1  0  0  0  0
103113  2  0  0  0  0
 91113  1  0  0  0  0
 89114  1  0  0  0  0
 89116  1  0  0  0  0
102122  1  0  0  0  0
109126  1  0  0  0  0
110129  1  0  0  0  0
111130  1  0  0  0  0
112131  1  0  0  0  0
113132  1  0  0  0  0
133134  1  0  0  0  0
133158  1  0  0  0  0
135157  2  0  0  0  0
134135  1  0  0  0  0
135136  1  0  0  0  0
137138  1  0  0  0  0
136137  2  0  0  0  0
138147  2  0  0  0  0
138139  1  0  0  0  0
139140  2  0  0  0  0
140163  1  0  0  0  0
140141  1  0  0  0  0
142143  1  0  0  0  0
141142  2  0  0  0  0
143146  2  0  0  0  0
144145  2  0  0  0  0
143144  1  0  0  0  0
146166  1  0  0  0  0
139146  1  0  0  0  0
147148  1  0  0  0  0
147157  1  0  0  0  0
148149  2  0  0  0  0
148156  1  0  0  0  0
149150  1  0  0  0  0
150151  2  0  0  0  0
151152  1  0  0  0  0
152169  1  0  0  0  0
152154  1  0  0  0  0
153170  1  0  0  0  0
152153  1  0  0  0  0
154173  1  0  0  0  0
151155  1  0  0  0  0
155174  1  0  0  0  0
155156  2  0  0  0  0
157176  1  0  0  0  0
133159  1  0  0  0  0
133160  1  0  0  0  0
136161  1  0  0  0  0
137162  1  0  0  0  0
141164  1  0  0  0  0
142165  1  0  0  0  0
149167  1  0  0  0  0
150168  1  0  0  0  0
153171  1  0  0  0  0
153172  1  0  0  0  0
156175  1  0  0  0  0
177180  1  0  0  0  0
177179  1  0  0  0  0
177181  1  0  0  0  0
177178  1  0  0  0  0
182191  1  0  0  0  0
182183  1  0  0  0  0
183186  1  0  0  0  0
183185  1  0  0  0  0
184193  1  0  0  0  0
183184  1  0  0  0  0
185196  1  0  0  0  0
185195  1  0  0  0  0
186187  1  0  0  0  0
154187  1  0  0  0  0
187188  2  0  0  0  0
182189  1  0  0  0  0
182190  1  0  0  0  0
184192  1  0  0  0  0
184194  1  0  0  0  0
185197  1  0  0  0  0
M  END
> <atom.dprop.PartialCharge>
0.107060 -0.318170 0.121410 -0.201640 -0.083930 -0.071210 -0.052080 -0.083090 -0.147830 -0.069850 -0.134960 0.643960 -0.542220 -0.058720 0.005280 -0.039030 -0.111210 -0.123220 -0.091540 0.151510 -0.111380 -0.569670 -0.123220 -0.111210 -0.145280 0.045780 0.045780 0.045780 0.142810 0.141900 0.140360 0.142440 0.157420 0.157970 0.137250 0.136110 0.089100 0.044840 0.044840 0.044840 0.310650 0.136110 0.137250 0.158050 0.112000 -0.323500 0.124280 -0.206580 -0.086820 -0.072850 -0.040400 -0.090100 -0.140680 -0.076580 -0.143980 0.672280 -0.606460 -0.092860 0.012560 -0.045370 -0.110690 -0.118010 -0.090820 0.151760 -0.114160 -0.570090 -0.118010 -0.110690 -0.145770 0.045240 0.045240 0.045240 0.139550 0.137350 0.141230 0.138380 0.154110 0.140750 0.136100 0.138020 0.083910 0.046670 0.046670 0.046670 0.312620 0.138020 0.136100 0.159050 0.114940 -0.327910 0.153720 -0.192030 -0.079630 -0.073000 -0.040680 -0.093290 -0.142690 -0.076630 -0.143790 0.676560 -0.610760 -0.091000 0.000640 -0.030420 -0.118020 -0.119730 -0.105400 0.162630 -0.110360 -0.574620 -0.119730 -0.118020 -0.138980 0.043580 0.043580 0.043580 0.137250 0.137510 0.137850 0.137030 0.154360 0.145020 0.140250 0.137290 0.063180 0.049550 0.049550 0.049550 0.317000 0.137290 0.140250 0.144210 0.112750 -0.325970 0.126010 -0.203350 -0.081550 -0.069160 -0.043350 -0.093280 -0.141420 -0.105640 -0.143650 0.673260 -0.611810 -0.059820 0.006280 -0.038160 -0.113410 -0.114370 -0.110660 0.158770 -0.101620 -0.552370 -0.114370 -0.113410 -0.146640 0.045310 0.045310 0.045310 0.139720 0.141480 0.137270 0.136520 0.136260 0.162370 0.138470 0.135480 0.088150 0.046360 0.046360 0.046360 0.323930 0.135480 0.138470 0.155700 0.125430 -0.444710 0.054350 0.054350 0.054350 -0.116850 0.188330 -0.116850 -0.116850 -0.450390 0.752370 -0.599430 0.052270 0.052270 0.052270 0.052270 0.052270 0.052270 0.052270 0.052270 0.052270

$$$$
