pom_tetramer.pdb
 OpenBabel09092515283D

197208  0  0  1  0  0  0  0  0999 V2000
   -2.8950   -5.6850   -0.6760 C   0  0  0  0  0  0  0  0  0  0  0  0
   -1.7560   -4.8400   -0.7660 O   0  0  0  0  0  0  0  0  0  0  0  0
   -1.9030   -3.5410   -0.3680 C   0  0  0  0  0  0  0  0  0  0  0  0
   -3.0550   -2.9540    0.1430 C   0  0  0  0  0  0  0  0  0  0  0  0
   -3.0450   -1.6140    0.5400 C   0  0  0  0  0  0  0  0  0  0  0  0
   -1.8910   -0.8270    0.4370 C   0  0  0  0  0  0  0  0  0  0  0  0
   -1.9000    0.5530    0.9640 C   0  0  0  0  0  0  0  0  0  0  0  0
   -0.9590    0.9440    1.9330 C   0  0  0  0  0  0  0  0  0  0  0  0
   -0.8210    2.2790    2.2930 C   0  0  0  0  0  0  0  0  0  0  0  0
   -1.6360    3.2300    1.6970 C   0  0  0  0  0  0  0  0  0  0  0  0
   -2.7030    2.8650    0.8740 C   0  0  0  0  0  0  0  0  0  0  0  0
   -3.6970    3.8500    0.3590 C   0  0  0  0  0  0  0  0  0  0  0  0
   -4.4570    3.5800   -0.5730 O   0  0  0  0  0  0  0  0  0  0  0  0
   -2.8030    1.5160    0.4770 C   0  0  0  0  0  0  0  0  0  0  0  0
   -0.7260   -1.4000   -0.1430 C   0  0  0  0  0  0  0  0  0  0  0  0
    0.5210   -0.6390   -0.3410 C   0  0  0  0  0  0  0  0  0  0  0  0
    1.6890   -1.0510    0.3020 C   0  0  0  0  0  0  0  0  0  0  0  0
    2.8480   -0.2890    0.2140 C   0  0  0  0  0  0  0  0  0  0  0  0
    2.9310    0.8290   -0.6120 C   0  0  0  0  0  0  0  0  0  0  0  0
    4.2410    1.5730   -0.7930 C   0  0  1  0  0  0  0  0  0  0  0  0
    4.7120    2.2400    0.5020 C   0  0  0  0  0  0  0  0  0  0  0  0
    5.3270    0.7900   -1.3960 N   0  0  0  0  0  0  0  0  0  0  0  0
    1.7630    1.2620   -1.2510 C   0  0  0  0  0  0  0  0  0  0  0  0
    0.5700    0.5400   -1.1040 C   0  0  0  0  0  0  0  0  0  0  0  0
   -0.7530   -2.7620   -0.5090 C   0  0  0  0  0  0  0  0  0  0  0  0
   -2.6030   -6.6710   -1.0520 H   0  0  0  0  0  0  0  0  0  0  0  0
   -3.2160   -5.8090    0.3640 H   0  0  0  0  0  0  0  0  0  0  0  0
   -3.7130   -5.3190   -1.3040 H   0  0  0  0  0  0  0  0  0  0  0  0
   -3.9780   -3.5150    0.2610 H   0  0  0  0  0  0  0  0  0  0  0  0
   -3.9530   -1.1830    0.9620 H   0  0  0  0  0  0  0  0  0  0  0  0
   -0.2680    0.2150    2.3570 H   0  0  0  0  0  0  0  0  0  0  0  0
   -0.0620    2.5800    3.0050 H   0  0  0  0  0  0  0  0  0  0  0  0
   -1.4110    4.2720    1.8890 H   0  0  0  0  0  0  0  0  0  0  0  0
   -3.5570    1.2280   -0.2600 H   0  0  0  0  0  0  0  0  0  0  0  0
    1.7120   -1.9590    0.8990 H   0  0  0  0  0  0  0  0  0  0  0  0
    3.7010   -0.6180    0.7980 H   0  0  0  0  0  0  0  0  0  0  0  0
    4.0680    2.3800   -1.5190 H   0  0  0  0  0  0  0  0  0  0  0  0
    5.5930    2.8650    0.3100 H   0  0  0  0  0  0  0  0  0  0  0  0
    5.0000    1.5010    1.2570 H   0  0  0  0  0  0  0  0  0  0  0  0
    3.9320    2.8760    0.9330 H   0  0  0  0  0  0  0  0  0  0  0  0
    5.9580    1.3930   -1.8940 H   0  0  0  0  0  0  0  0  0  0  0  0
    1.7540    2.1670   -1.8550 H   0  0  0  0  0  0  0  0  0  0  0  0
   -0.3330    0.9150   -1.5820 H   0  0  0  0  0  0  0  0  0  0  0  0
    0.1450   -3.2290   -0.9140 H   0  0  0  0  0  0  0  0  0  0  0  0
   10.9160   -4.8040    6.0860 C   0  0  0  0  0  0  0  0  0  0  0  0
   11.4370   -4.6420    4.7740 O   0  0  0  0  0  0  0  0  0  0  0  0
   10.7940   -3.7650    3.9470 C   0  0  0  0  0  0  0  0  0  0  0  0
    9.6810   -2.9930    4.2600 C   0  0  0  0  0  0  0  0  0  0  0  0
    9.1490   -2.1050    3.3140 C   0  0  0  0  0  0  0  0  0  0  0  0
    9.7080   -1.9720    2.0290 C   0  0  0  0  0  0  0  0  0  0  0  0
    9.1660   -0.9630    1.0900 C   0  0  0  0  0  0  0  0  0  0  0  0
    9.9840    0.0480    0.5510 C   0  0  0  0  0  0  0  0  0  0  0  0
    9.4950    0.9620   -0.3820 C   0  0  0  0  0  0  0  0  0  0  0  0
    8.1730    0.8910   -0.8000 C   0  0  0  0  0  0  0  0  0  0  0  0
    7.3420   -0.1150   -0.3030 C   0  0  0  0  0  0  0  0  0  0  0  0
    5.9240   -0.2680   -0.7260 C   0  0  0  0  0  0  0  0  0  0  0  0
    5.3570   -1.3180   -0.4430 O   0  0  0  0  0  0  0  0  0  0  0  0
    7.8360   -1.0210    0.6540 C   0  0  0  0  0  0  0  0  0  0  0  0
   10.8020   -2.8050    1.6910 C   0  0  0  0  0  0  0  0  0  0  0  0
   11.4180   -2.7750    0.3560 C   0  0  0  0  0  0  0  0  0  0  0  0
   12.7570   -2.4060    0.2320 C   0  0  0  0  0  0  0  0  0  0  0  0
   13.3260   -2.2550   -1.0230 C   0  0  0  0  0  0  0  0  0  0  0  0
   12.6350   -2.5920   -2.1920 C   0  0  0  0  0  0  0  0  0  0  0  0
   13.3170   -2.5430   -3.5400 C   0  0  1  0  0  0  0  0  0  0  0  0
   13.7050   -1.1180   -3.9420 C   0  0  0  0  0  0  0  0  0  0  0  0
   14.4610   -3.4520   -3.7000 N   0  0  0  0  0  0  0  0  0  0  0  0
   11.2870   -2.9500   -2.0740 C   0  0  0  0  0  0  0  0  0  0  0  0
   10.6860   -3.0300   -0.8140 C   0  0  0  0  0  0  0  0  0  0  0  0
   11.3410   -3.6680    2.6680 C   0  0  0  0  0  0  0  0  0  0  0  0
   11.5540   -5.5240    6.6090 H   0  0  0  0  0  0  0  0  0  0  0  0
   10.9490   -3.8640    6.6470 H   0  0  0  0  0  0  0  0  0  0  0  0
    9.9020   -5.2150    6.0600 H   0  0  0  0  0  0  0  0  0  0  0  0
    9.2080   -3.0450    5.2350 H   0  0  0  0  0  0  0  0  0  0  0  0
    8.2920   -1.4960    3.5950 H   0  0  0  0  0  0  0  0  0  0  0  0
   11.0350    0.1050    0.8310 H   0  0  0  0  0  0  0  0  0  0  0  0
   10.1550    1.7170   -0.8020 H   0  0  0  0  0  0  0  0  0  0  0  0
    7.8350    1.6220   -1.5220 H   0  0  0  0  0  0  0  0  0  0  0  0
    7.1830   -1.8020    1.0460 H   0  0  0  0  0  0  0  0  0  0  0  0
   13.3690   -2.2050    1.1080 H   0  0  0  0  0  0  0  0  0  0  0  0
   14.3450   -1.8880   -1.0620 H   0  0  0  0  0  0  0  0  0  0  0  0
   12.5950   -2.8990   -4.2890 H   0  0  0  0  0  0  0  0  0  0  0  0
   14.0900   -1.1050   -4.9690 H   0  0  0  0  0  0  0  0  0  0  0  0
   14.4920   -0.7160   -3.2960 H   0  0  0  0  0  0  0  0  0  0  0  0
   12.8470   -0.4400   -3.8920 H   0  0  0  0  0  0  0  0  0  0  0  0
   14.5680   -3.7120   -4.6650 H   0  0  0  0  0  0  0  0  0  0  0  0
   10.6820   -3.1530   -2.9550 H   0  0  0  0  0  0  0  0  0  0  0  0
    9.6280   -3.2780   -0.7490 H   0  0  0  0  0  0  0  0  0  0  0  0
   12.2090   -4.2810    2.4250 H   0  0  0  0  0  0  0  0  0  0  0  0
   23.7410    1.0210   -0.1120 C   0  0  0  0  0  0  0  0  0  0  0  0
   23.7700   -0.1470   -0.9210 O   0  0  0  0  0  0  0  0  0  0  0  0
   22.5990   -0.5420   -1.5070 C   0  0  0  0  0  0  0  0  0  0  0  0
   21.3690    0.0950   -1.4150 C   0  0  0  0  0  0  0  0  0  0  0  0
   20.2550   -0.4130   -2.1040 C   0  0  0  0  0  0  0  0  0  0  0  0
   20.3390   -1.5760   -2.8920 C   0  0  0  0  0  0  0  0  0  0  0  0
   19.1580   -2.0340   -3.6680 C   0  0  0  0  0  0  0  0  0  0  0  0
   19.2150   -2.1940   -5.0640 C   0  0  0  0  0  0  0  0  0  0  0  0
   18.1270   -2.6750   -5.7950 C   0  0  0  0  0  0  0  0  0  0  0  0
   16.9460   -3.0140   -5.1490 C   0  0  0  0  0  0  0  0  0  0  0  0
   16.8630   -2.8940   -3.7610 C   0  0  0  0  0  0  0  0  0  0  0  0
   15.6430   -3.2690   -2.9970 C   0  0  0  0  0  0  0  0  0  0  0  0
   15.7510   -3.3830   -1.7820 O   0  0  0  0  0  0  0  0  0  0  0  0
   17.9580   -2.3850   -3.0320 C   0  0  0  0  0  0  0  0  0  0  0  0
   21.5800   -2.2580   -2.9320 C   0  0  0  0  0  0  0  0  0  0  0  0
   21.7550   -3.5120   -3.6800 C   0  0  0  0  0  0  0  0  0  0  0  0
   22.6620   -3.5590   -4.7360 C   0  0  0  0  0  0  0  0  0  0  0  0
   22.7490   -4.6910   -5.5310 C   0  0  0  0  0  0  0  0  0  0  0  0
   22.0470   -5.8630   -5.2300 C   0  0  0  0  0  0  0  0  0  0  0  0
   22.2470   -7.1230   -6.0410 C   0  0  1  0  0  0  0  0  0  0  0  0
   21.7770   -6.9580   -7.4890 C   0  0  0  0  0  0  0  0  0  0  0  0
   23.6040   -7.6860   -6.0030 N   0  0  0  0  0  0  0  0  0  0  0  0
   21.1280   -5.8200   -4.1750 C   0  0  0  0  0  0  0  0  0  0  0  0
   20.9760   -4.6520   -3.4190 C   0  0  0  0  0  0  0  0  0  0  0  0
   22.6940   -1.7120   -2.2590 C   0  0  0  0  0  0  0  0  0  0  0  0
   24.7550    1.1890    0.2650 H   0  0  0  0  0  0  0  0  0  0  0  0
   23.4550    1.9030   -0.6960 H   0  0  0  0  0  0  0  0  0  0  0  0
   23.0830    0.8870    0.7520 H   0  0  0  0  0  0  0  0  0  0  0  0
   21.2380    0.9960   -0.8240 H   0  0  0  0  0  0  0  0  0  0  0  0
   19.3090    0.1180   -2.0260 H   0  0  0  0  0  0  0  0  0  0  0  0
   20.1380   -1.9740   -5.5990 H   0  0  0  0  0  0  0  0  0  0  0  0
   18.2080   -2.8060   -6.8710 H   0  0  0  0  0  0  0  0  0  0  0  0
   16.1270   -3.3840   -5.7530 H   0  0  0  0  0  0  0  0  0  0  0  0
   17.8820   -2.2850   -1.9490 H   0  0  0  0  0  0  0  0  0  0  0  0
   23.2940   -2.7070   -4.9740 H   0  0  0  0  0  0  0  0  0  0  0  0
   23.4080   -4.6400   -6.3900 H   0  0  0  0  0  0  0  0  0  0  0  0
   21.6240   -7.9100   -5.5930 H   0  0  0  0  0  0  0  0  0  0  0  0
   21.8290   -7.9170   -8.0180 H   0  0  0  0  0  0  0  0  0  0  0  0
   22.4070   -6.2500   -8.0400 H   0  0  0  0  0  0  0  0  0  0  0  0
   20.7450   -6.5970   -7.5380 H   0  0  0  0  0  0  0  0  0  0  0  0
   23.5790   -8.6830   -6.1310 H   0  0  0  0  0  0  0  0  0  0  0  0
   20.5050   -6.6790   -3.9360 H   0  0  0  0  0  0  0  0  0  0  0  0
   20.2280   -4.6290   -2.6290 H   0  0  0  0  0  0  0  0  0  0  0  0
   23.6610   -2.2140   -2.3220 H   0  0  0  0  0  0  0  0  0  0  0  0
   30.0900   -3.1670  -13.4890 C   0  0  0  0  0  0  0  0  0  0  0  0
   30.4950   -4.3600  -12.8250 O   0  0  0  0  0  0  0  0  0  0  0  0
   29.5700   -4.9920  -12.0440 C   0  0  0  0  0  0  0  0  0  0  0  0
   28.2480   -4.6000  -11.8580 C   0  0  0  0  0  0  0  0  0  0  0  0
   27.3890   -5.3670  -11.0570 C   0  0  0  0  0  0  0  0  0  0  0  0
   27.8260   -6.5420  -10.4150 C   0  0  0  0  0  0  0  0  0  0  0  0
   26.8580   -7.3680   -9.6570 C   0  0  0  0  0  0  0  0  0  0  0  0
   26.6280   -8.7140   -9.9890 C   0  0  0  0  0  0  0  0  0  0  0  0
   25.7640   -9.5160   -9.2390 C   0  0  0  0  0  0  0  0  0  0  0  0
   25.1060   -8.9900   -8.1340 C   0  0  0  0  0  0  0  0  0  0  0  0
   25.3260   -7.6610   -7.7690 C   0  0  0  0  0  0  0  0  0  0  0  0
   24.6790   -7.0330   -6.5880 C   0  0  0  0  0  0  0  0  0  0  0  0
   25.1250   -5.9570   -6.2080 O   0  0  0  0  0  0  0  0  0  0  0  0
   26.1800   -6.8520   -8.5460 C   0  0  0  0  0  0  0  0  0  0  0  0
   29.1920   -6.9110  -10.5510 C   0  0  0  0  0  0  0  0  0  0  0  0
   29.7510   -8.0960   -9.8860 C   0  0  0  0  0  0  0  0  0  0  0  0
   30.2650   -9.1380  -10.6590 C   0  0  0  0  0  0  0  0  0  0  0  0
   30.7060  -10.3130  -10.0580 C   0  0  0  0  0  0  0  0  0  0  0  0
   30.7830  -10.4580   -8.6670 C   0  0  0  0  0  0  0  0  0  0  0  0
   31.3670  -11.7170   -8.0380 C   0  0  1  0  0  0  0  0  0  0  0  0
   30.5100  -12.9510   -8.3420 C   0  0  0  0  0  0  0  0  0  0  0  0
   32.7810  -12.0240   -8.3370 N   0  0  0  0  0  0  0  0  0  0  0  0
   30.2440   -9.4240   -7.8890 C   0  0  0  0  0  0  0  0  0  0  0  0
   29.7300   -8.2640   -8.4930 C   0  0  0  0  0  0  0  0  0  0  0  0
   30.0280   -6.1330  -11.3900 C   0  0  0  0  0  0  0  0  0  0  0  0
   30.9470   -2.7960  -14.0620 H   0  0  0  0  0  0  0  0  0  0  0  0
   29.2780   -3.3590  -14.2000 H   0  0  0  0  0  0  0  0  0  0  0  0
   29.8100   -2.3890  -12.7720 H   0  0  0  0  0  0  0  0  0  0  0  0
   27.8440   -3.7110  -12.3270 H   0  0  0  0  0  0  0  0  0  0  0  0
   26.3550   -5.0480  -10.9490 H   0  0  0  0  0  0  0  0  0  0  0  0
   27.1520   -9.1640  -10.8300 H   0  0  0  0  0  0  0  0  0  0  0  0
   25.6240  -10.5600   -9.5050 H   0  0  0  0  0  0  0  0  0  0  0  0
   24.4480   -9.6440   -7.5780 H   0  0  0  0  0  0  0  0  0  0  0  0
   26.3390   -5.8100   -8.2640 H   0  0  0  0  0  0  0  0  0  0  0  0
   30.3050   -9.0630  -11.7420 H   0  0  0  0  0  0  0  0  0  0  0  0
   31.0070  -11.1150  -10.7210 H   0  0  0  0  0  0  0  0  0  0  0  0
   31.3510  -11.5750   -6.9480 H   0  0  0  0  0  0  0  0  0  0  0  0
   30.8900  -13.8190   -7.7900 H   0  0  0  0  0  0  0  0  0  0  0  0
   30.5430  -13.2080   -9.4060 H   0  0  0  0  0  0  0  0  0  0  0  0
   29.4630  -12.8000   -8.0620 H   0  0  0  0  0  0  0  0  0  0  0  0
   33.1650  -12.6960   -7.6940 H   0  0  0  0  0  0  0  0  0  0  0  0
   30.1910   -9.5060   -6.8050 H   0  0  0  0  0  0  0  0  0  0  0  0
   29.2940   -7.4870   -7.8650 H   0  0  0  0  0  0  0  0  0  0  0  0
   31.0670   -6.4380  -11.5400 H   0  0  0  0  0  0  0  0  0  0  0  0
   -3.8130    5.2510    2.3370 C   0  0  0  0  0  0  0  0  0  0  0  0
   -3.6450    5.0900    0.9150 O   0  0  0  0  0  0  0  0  0  0  0  0
   -4.6550    4.6660    2.7130 H   0  0  0  0  0  0  0  0  0  0  0  0
   -3.9840    6.3140    2.5260 H   0  0  0  0  0  0  0  0  0  0  0  0
   -2.9120    5.0000    2.8980 H   0  0  0  0  0  0  0  0  0  0  0  0
   34.5310  -15.4940  -10.8090 C   0  0  0  0  0  0  0  0  0  0  0  0
   33.8830  -14.1230  -11.0520 C   0  0  0  0  0  0  0  0  0  0  0  0
   34.8520  -13.2810  -11.8980 C   0  0  0  0  0  0  0  0  0  0  0  0
   32.5600  -14.3500  -11.8040 C   0  0  0  0  0  0  0  0  0  0  0  0
   33.6530  -13.5650   -9.7190 O   0  0  0  0  0  0  0  0  0  0  0  0
   33.1990  -12.2890   -9.6170 C   0  0  0  0  0  0  0  0  0  0  0  0
   33.1430  -11.5150  -10.5460 O   0  0  0  0  0  0  0  0  0  0  0  0
   34.7640  -16.0020  -11.7510 H   0  0  0  0  0  0  0  0  0  0  0  0
   35.4570  -15.3870  -10.2350 H   0  0  0  0  0  0  0  0  0  0  0  0
   33.8680  -16.1420  -10.2240 H   0  0  0  0  0  0  0  0  0  0  0  0
   35.7430  -13.0180  -11.3220 H   0  0  0  0  0  0  0  0  0  0  0  0
   34.4030  -12.3450  -12.2420 H   0  0  0  0  0  0  0  0  0  0  0  0
   35.1570  -13.8170  -12.8040 H   0  0  0  0  0  0  0  0  0  0  0  0
   31.8460  -14.9130  -11.1920 H   0  0  0  0  0  0  0  0  0  0  0  0
   32.0720  -13.4070  -12.0720 H   0  0  0  0  0  0  0  0  0  0  0  0
   32.7250  -14.9080  -12.7340 H   0  0  0  0  0  0  0  0  0  0  0  0
  1 27  1  0  0  0  0
  2  1  1  0  0  0  0
  2  3  1  0  0  0  0
  3  4  1  0  0  0  0
  4 29  1  0  0  0  0
  4  5  2  0  0  0  0
  5 30  1  0  0  0  0
  6  5  1  0  0  0  0
  6  7  1  0  0  0  0
  7  8  1  0  0  0  0
  8  9  2  0  0  0  0
  8 31  1  0  0  0  0
  9 32  1  0  0  0  0
 10 33  1  0  0  0  0
 10  9  1  0  0  0  0
 11 10  2  0  0  0  0
 12 11  1  0  0  0  0
 12178  1  0  0  0  0
 13 12  2  0  0  0  0
 14 11  1  0  0  0  0
 14  7  2  0  0  0  0
 15  6  2  0  0  0  0
 16 15  1  0  0  0  0
 16 17  1  0  0  0  0
 17 35  1  0  0  0  0
 18 17  2  0  0  0  0
 18 36  1  0  0  0  0
 19 18  1  0  0  0  0
 20 37  1  6  0  0  0
 20 19  1  0  0  0  0
 20 21  1  0  0  0  0
 21 40  1  0  0  0  0
 21 39  1  0  0  0  0
 22 20  1  0  0  0  0
 22 56  1  0  0  0  0
 23 24  1  0  0  0  0
 23 19  2  0  0  0  0
 24 16  2  0  0  0  0
 25  3  2  0  0  0  0
 25 15  1  0  0  0  0
 26  1  1  0  0  0  0
 28  1  1  0  0  0  0
 34 14  1  0  0  0  0
 38 21  1  0  0  0  0
 41 22  1  0  0  0  0
 42 23  1  0  0  0  0
 43 24  1  0  0  0  0
 44 25  1  0  0  0  0
 45 70  1  0  0  0  0
 45 71  1  0  0  0  0
 46 45  1  0  0  0  0
 47 48  1  0  0  0  0
 47 46  1  0  0  0  0
 48 73  1  0  0  0  0
 49 74  1  0  0  0  0
 49 48  2  0  0  0  0
 50 49  1  0  0  0  0
 51 50  1  0  0  0  0
 52 75  1  0  0  0  0
 52 51  2  0  0  0  0
 53 52  1  0  0  0  0
 54 53  2  0  0  0  0
 54 55  1  0  0  0  0
 55 58  2  0  0  0  0
 56 57  2  0  0  0  0
 56 55  1  0  0  0  0
 58 78  1  0  0  0  0
 58 51  1  0  0  0  0
 59 50  2  0  0  0  0
 59 69  1  0  0  0  0
 60 59  1  0  0  0  0
 61 60  1  0  0  0  0
 61 79  1  0  0  0  0
 62 61  2  0  0  0  0
 63 67  2  0  0  0  0
 63 62  1  0  0  0  0
 64 81  1  6  0  0  0
 64 63  1  0  0  0  0
 65 84  1  0  0  0  0
 65 64  1  0  0  0  0
 65 83  1  0  0  0  0
 66 64  1  0  0  0  0
 66100  1  0  0  0  0
 67 68  1  0  0  0  0
 68 87  1  0  0  0  0
 68 60  2  0  0  0  0
 69 47  2  0  0  0  0
 72 45  1  0  0  0  0
 76 53  1  0  0  0  0
 77 54  1  0  0  0  0
 80 62  1  0  0  0  0
 82 65  1  0  0  0  0
 85 66  1  0  0  0  0
 86 67  1  0  0  0  0
 88 69  1  0  0  0  0
 89114  1  0  0  0  0
 89116  1  0  0  0  0
 90 89  1  0  0  0  0
 91 92  1  0  0  0  0
 91 90  1  0  0  0  0
 92117  1  0  0  0  0
 93118  1  0  0  0  0
 93 92  2  0  0  0  0
 94 93  1  0  0  0  0
 95102  1  0  0  0  0
 95 94  1  0  0  0  0
 96 95  2  0  0  0  0
 97 98  2  0  0  0  0
 97 96  1  0  0  0  0
 98 99  1  0  0  0  0
 99102  2  0  0  0  0
 99100  1  0  0  0  0
100101  2  0  0  0  0
102122  1  0  0  0  0
103 94  2  0  0  0  0
103113  1  0  0  0  0
104112  1  0  0  0  0
104103  1  0  0  0  0
105104  2  0  0  0  0
106107  2  0  0  0  0
106105  1  0  0  0  0
107111  1  0  0  0  0
108110  1  0  0  0  0
108125  1  1  0  0  0
108107  1  0  0  0  0
109108  1  0  0  0  0
111130  1  0  0  0  0
111112  2  0  0  0  0
112131  1  0  0  0  0
113 91  2  0  0  0  0
115 89  1  0  0  0  0
119 96  1  0  0  0  0
120 97  1  0  0  0  0
121 98  1  0  0  0  0
123105  1  0  0  0  0
124106  1  0  0  0  0
126109  1  0  0  0  0
127109  1  0  0  0  0
128109  1  0  0  0  0
129110  1  0  0  0  0
132113  1  0  0  0  0
133134  1  0  0  0  0
133160  1  0  0  0  0
134135  1  0  0  0  0
135136  2  0  0  0  0
135157  1  0  0  0  0
136137  1  0  0  0  0
137162  1  0  0  0  0
137138  2  0  0  0  0
138139  1  0  0  0  0
139146  1  0  0  0  0
140139  2  0  0  0  0
140141  1  0  0  0  0
141142  2  0  0  0  0
142143  1  0  0  0  0
142165  1  0  0  0  0
143144  1  0  0  0  0
144145  2  0  0  0  0
144110  1  0  0  0  0
146166  1  0  0  0  0
146143  2  0  0  0  0
147138  1  0  0  0  0
147148  1  0  0  0  0
148156  1  0  0  0  0
149150  1  0  0  0  0
149148  2  0  0  0  0
150151  2  0  0  0  0
151152  1  0  0  0  0
151155  1  0  0  0  0
152169  1  1  0  0  0
153172  1  0  0  0  0
153152  1  0  0  0  0
153170  1  0  0  0  0
154152  1  0  0  0  0
154173  1  0  0  0  0
155174  1  0  0  0  0
156155  2  0  0  0  0
156175  1  0  0  0  0
157147  2  0  0  0  0
158133  1  0  0  0  0
159133  1  0  0  0  0
161136  1  0  0  0  0
163140  1  0  0  0  0
164141  1  0  0  0  0
167149  1  0  0  0  0
168150  1  0  0  0  0
171153  1  0  0  0  0
176157  1  0  0  0  0
177180  1  0  0  0  0
177179  1  0  0  0  0
177181  1  0  0  0  0
178177  1  0  0  0  0
182190  1  0  0  0  0
182191  1  0  0  0  0
183182  1  0  0  0  0
183186  1  0  0  0  0
184192  1  0  0  0  0
184183  1  0  0  0  0
185195  1  0  0  0  0
185183  1  0  0  0  0
186187  1  0  0  0  0
187154  1  0  0  0  0
188187  2  0  0  0  0
189182  1  0  0  0  0
193184  1  0  0  0  0
194184  1  0  0  0  0
196185  1  0  0  0  0
197185  1  0  0  0  0
M  END
