pom_tetramer.pdb
  -OEChem-09122517443D

197208  0     1  0  0  0  0  0999 V2000
   -2.8950   -5.6850   -0.6760 C   0  0  0  0  0  0  0  0  0  0  0  0
   -1.7560   -4.8400   -0.7660 O   0  0  0  0  0  0  0  0  0  0  0  0
   -1.9030   -3.5410   -0.3680 C   0  0  0  0  0  0  0  0  0  0  0  0
   -3.0550   -2.9540    0.1430 C   0  0  0  0  0  0  0  0  0  0  0  0
   -3.0450   -1.6140    0.5400 C   0  0  0  0  0  0  0  0  0  0  0  0
   -1.8910   -0.8270    0.4370 C   0  0  0  0  0  0  0  0  0  0  0  0
   -1.9000    0.5530    0.9640 C   0  0  0  0  0  0  0  0  0  0  0  0
   -0.9590    0.9440    1.9330 C   0  0  0  0  0  0  0  0  0  0  0  0
   -0.8210    2.2790    2.2930 C   0  0  0  0  0  0  0  0  0  0  0  0
   -1.6360    3.2300    1.6970 C   0  0  0  0  0  0  0  0  0  0  0  0
   -2.7030    2.8650    0.8740 C   0  0  0  0  0  0  0  0  0  0  0  0
   -3.6970    3.8500    0.3590 C   0  0  0  0  0  0  0  0  0  0  0  0
   -4.4570    3.5800   -0.5730 O   0  0  0  0  0  0  0  0  0  0  0  0
   -2.8030    1.5160    0.4770 C   0  0  0  0  0  0  0  0  0  0  0  0
   -0.7260   -1.4000   -0.1430 C   0  0  0  0  0  0  0  0  0  0  0  0
    0.5210   -0.6390   -0.3410 C   0  0  0  0  0  0  0  0  0  0  0  0
    1.6890   -1.0510    0.3020 C   0  0  0  0  0  0  0  0  0  0  0  0
    2.8480   -0.2890    0.2140 C   0  0  0  0  0  0  0  0  0  0  0  0
    2.9310    0.8290   -0.6120 C   0  0  0  0  0  0  0  0  0  0  0  0
    4.2410    1.5730   -0.7930 C   0  0  1  0  0  0  0  0  0  0  0  0
    4.7120    2.2400    0.5020 C   0  0  0  0  0  0  0  0  0  0  0  0
    5.3270    0.7900   -1.3960 N   0  0  0  0  0  0  0  0  0  0  0  0
    1.7630    1.2620   -1.2510 C   0  0  0  0  0  0  0  0  0  0  0  0
    0.5700    0.5400   -1.1040 C   0  0  0  0  0  0  0  0  0  0  0  0
   -0.7530   -2.7620   -0.5090 C   0  0  0  0  0  0  0  0  0  0  0  0
   -2.6030   -6.6710   -1.0520 H   0  0  0  0  0  0  0  0  0  0  0  0
   -3.2160   -5.8090    0.3640 H   0  0  0  0  0  0  0  0  0  0  0  0
   -3.7130   -5.3190   -1.3040 H   0  0  0  0  0  0  0  0  0  0  0  0
   -3.9780   -3.5150    0.2610 H   0  0  0  0  0  0  0  0  0  0  0  0
   -3.9530   -1.1830    0.9620 H   0  0  0  0  0  0  0  0  0  0  0  0
   -0.2680    0.2150    2.3570 H   0  0  0  0  0  0  0  0  0  0  0  0
   -0.0620    2.5800    3.0050 H   0  0  0  0  0  0  0  0  0  0  0  0
   -1.4110    4.2720    1.8890 H   0  0  0  0  0  0  0  0  0  0  0  0
   -3.5570    1.2280   -0.2600 H   0  0  0  0  0  0  0  0  0  0  0  0
    1.7120   -1.9590    0.8990 H   0  0  0  0  0  0  0  0  0  0  0  0
    3.7010   -0.6180    0.7980 H   0  0  0  0  0  0  0  0  0  0  0  0
    4.0680    2.3800   -1.5190 H   0  0  0  0  0  0  0  0  0  0  0  0
    5.5930    2.8650    0.3100 H   0  0  0  0  0  0  0  0  0  0  0  0
    5.0000    1.5010    1.2570 H   0  0  0  0  0  0  0  0  0  0  0  0
    3.9320    2.8760    0.9330 H   0  0  0  0  0  0  0  0  0  0  0  0
    5.9580    1.3930   -1.8940 H   0  0  0  0  0  0  0  0  0  0  0  0
    1.7540    2.1670   -1.8550 H   0  0  0  0  0  0  0  0  0  0  0  0
   -0.3330    0.9150   -1.5820 H   0  0  0  0  0  0  0  0  0  0  0  0
    0.1450   -3.2290   -0.9140 H   0  0  0  0  0  0  0  0  0  0  0  0
   10.9160   -4.8040    6.0860 C   0  0  0  0  0  0  0  0  0  0  0  0
   11.4370   -4.6420    4.7740 O   0  0  0  0  0  0  0  0  0  0  0  0
   10.7940   -3.7650    3.9470 C   0  0  0  0  0  0  0  0  0  0  0  0
    9.6810   -2.9930    4.2600 C   0  0  0  0  0  0  0  0  0  0  0  0
    9.1490   -2.1050    3.3140 C   0  0  0  0  0  0  0  0  0  0  0  0
    9.7080   -1.9720    2.0290 C   0  0  0  0  0  0  0  0  0  0  0  0
    9.1660   -0.9630    1.0900 C   0  0  0  0  0  0  0  0  0  0  0  0
    9.9840    0.0480    0.5510 C   0  0  0  0  0  0  0  0  0  0  0  0
    9.4950    0.9620   -0.3820 C   0  0  0  0  0  0  0  0  0  0  0  0
    8.1730    0.8910   -0.8000 C   0  0  0  0  0  0  0  0  0  0  0  0
    7.3420   -0.1150   -0.3030 C   0  0  0  0  0  0  0  0  0  0  0  0
    5.9240   -0.2680   -0.7260 C   0  0  0  0  0  0  0  0  0  0  0  0
    5.3570   -1.3180   -0.4430 O   0  0  0  0  0  0  0  0  0  0  0  0
    7.8360   -1.0210    0.6540 C   0  0  0  0  0  0  0  0  0  0  0  0
   10.8020   -2.8050    1.6910 C   0  0  0  0  0  0  0  0  0  0  0  0
   11.4180   -2.7750    0.3560 C   0  0  0  0  0  0  0  0  0  0  0  0
   12.7570   -2.4060    0.2320 C   0  0  0  0  0  0  0  0  0  0  0  0
   13.3260   -2.2550   -1.0230 C   0  0  0  0  0  0  0  0  0  0  0  0
   12.6350   -2.5920   -2.1920 C   0  0  0  0  0  0  0  0  0  0  0  0
   13.3170   -2.5430   -3.5400 C   0  0  1  0  0  0  0  0  0  0  0  0
   13.7050   -1.1180   -3.9420 C   0  0  0  0  0  0  0  0  0  0  0  0
   14.4610   -3.4520   -3.7000 N   0  0  0  0  0  0  0  0  0  0  0  0
   11.2870   -2.9500   -2.0740 C   0  0  0  0  0  0  0  0  0  0  0  0
   10.6860   -3.0300   -0.8140 C   0  0  0  0  0  0  0  0  0  0  0  0
   11.3410   -3.6680    2.6680 C   0  0  0  0  0  0  0  0  0  0  0  0
   11.5540   -5.5240    6.6090 H   0  0  0  0  0  0  0  0  0  0  0  0
   10.9490   -3.8640    6.6470 H   0  0  0  0  0  0  0  0  0  0  0  0
    9.9020   -5.2150    6.0600 H   0  0  0  0  0  0  0  0  0  0  0  0
    9.2080   -3.0450    5.2350 H   0  0  0  0  0  0  0  0  0  0  0  0
    8.2920   -1.4960    3.5950 H   0  0  0  0  0  0  0  0  0  0  0  0
   11.0350    0.1050    0.8310 H   0  0  0  0  0  0  0  0  0  0  0  0
   10.1550    1.7170   -0.8020 H   0  0  0  0  0  0  0  0  0  0  0  0
    7.8350    1.6220   -1.5220 H   0  0  0  0  0  0  0  0  0  0  0  0
    7.1830   -1.8020    1.0460 H   0  0  0  0  0  0  0  0  0  0  0  0
   13.3690   -2.2050    1.1080 H   0  0  0  0  0  0  0  0  0  0  0  0
   14.3450   -1.8880   -1.0620 H   0  0  0  0  0  0  0  0  0  0  0  0
   12.5950   -2.8990   -4.2890 H   0  0  0  0  0  0  0  0  0  0  0  0
   14.0900   -1.1050   -4.9690 H   0  0  0  0  0  0  0  0  0  0  0  0
   14.4920   -0.7160   -3.2960 H   0  0  0  0  0  0  0  0  0  0  0  0
   12.8470   -0.4400   -3.8920 H   0  0  0  0  0  0  0  0  0  0  0  0
   14.5680   -3.7120   -4.6650 H   0  0  0  0  0  0  0  0  0  0  0  0
   10.6820   -3.1530   -2.9550 H   0  0  0  0  0  0  0  0  0  0  0  0
    9.6280   -3.2780   -0.7490 H   0  0  0  0  0  0  0  0  0  0  0  0
   12.2090   -4.2810    2.4250 H   0  0  0  0  0  0  0  0  0  0  0  0
   23.7410    1.0210   -0.1120 C   0  0  0  0  0  0  0  0  0  0  0  0
   23.7700   -0.1470   -0.9210 O   0  0  0  0  0  0  0  0  0  0  0  0
   22.5990   -0.5420   -1.5070 C   0  0  0  0  0  0  0  0  0  0  0  0
   21.3690    0.0950   -1.4150 C   0  0  0  0  0  0  0  0  0  0  0  0
   20.2550   -0.4130   -2.1040 C   0  0  0  0  0  0  0  0  0  0  0  0
   20.3390   -1.5760   -2.8920 C   0  0  0  0  0  0  0  0  0  0  0  0
   19.1580   -2.0340   -3.6680 C   0  0  0  0  0  0  0  0  0  0  0  0
   19.2150   -2.1940   -5.0640 C   0  0  0  0  0  0  0  0  0  0  0  0
   18.1270   -2.6750   -5.7950 C   0  0  0  0  0  0  0  0  0  0  0  0
   16.9460   -3.0140   -5.1490 C   0  0  0  0  0  0  0  0  0  0  0  0
   16.8630   -2.8940   -3.7610 C   0  0  0  0  0  0  0  0  0  0  0  0
   15.6430   -3.2690   -2.9970 C   0  0  0  0  0  0  0  0  0  0  0  0
   15.7510   -3.3830   -1.7820 O   0  0  0  0  0  0  0  0  0  0  0  0
   17.9580   -2.3850   -3.0320 C   0  0  0  0  0  0  0  0  0  0  0  0
   21.5800   -2.2580   -2.9320 C   0  0  0  0  0  0  0  0  0  0  0  0
   21.7550   -3.5120   -3.6800 C   0  0  0  0  0  0  0  0  0  0  0  0
   22.6620   -3.5590   -4.7360 C   0  0  0  0  0  0  0  0  0  0  0  0
   22.7490   -4.6910   -5.5310 C   0  0  0  0  0  0  0  0  0  0  0  0
   22.0470   -5.8630   -5.2300 C   0  0  0  0  0  0  0  0  0  0  0  0
   22.2470   -7.1230   -6.0410 C   0  0  1  0  0  0  0  0  0  0  0  0
   21.7770   -6.9580   -7.4890 C   0  0  0  0  0  0  0  0  0  0  0  0
   23.6040   -7.6860   -6.0030 N   0  0  0  0  0  0  0  0  0  0  0  0
   21.1280   -5.8200   -4.1750 C   0  0  0  0  0  0  0  0  0  0  0  0
   20.9760   -4.6520   -3.4190 C   0  0  0  0  0  0  0  0  0  0  0  0
   22.6940   -1.7120   -2.2590 C   0  0  0  0  0  0  0  0  0  0  0  0
   24.7550    1.1890    0.2650 H   0  0  0  0  0  0  0  0  0  0  0  0
   23.4550    1.9030   -0.6960 H   0  0  0  0  0  0  0  0  0  0  0  0
   23.0830    0.8870    0.7520 H   0  0  0  0  0  0  0  0  0  0  0  0
   21.2380    0.9960   -0.8240 H   0  0  0  0  0  0  0  0  0  0  0  0
   19.3090    0.1180   -2.0260 H   0  0  0  0  0  0  0  0  0  0  0  0
   20.1380   -1.9740   -5.5990 H   0  0  0  0  0  0  0  0  0  0  0  0
   18.2080   -2.8060   -6.8710 H   0  0  0  0  0  0  0  0  0  0  0  0
   16.1270   -3.3840   -5.7530 H   0  0  0  0  0  0  0  0  0  0  0  0
   17.8820   -2.2850   -1.9490 H   0  0  0  0  0  0  0  0  0  0  0  0
   23.2940   -2.7070   -4.9740 H   0  0  0  0  0  0  0  0  0  0  0  0
   23.4080   -4.6400   -6.3900 H   0  0  0  0  0  0  0  0  0  0  0  0
   21.6240   -7.9100   -5.5930 H   0  0  0  0  0  0  0  0  0  0  0  0
   21.8290   -7.9170   -8.0180 H   0  0  0  0  0  0  0  0  0  0  0  0
   22.4070   -6.2500   -8.0400 H   0  0  0  0  0  0  0  0  0  0  0  0
   20.7450   -6.5970   -7.5380 H   0  0  0  0  0  0  0  0  0  0  0  0
   23.5790   -8.6830   -6.1310 H   0  0  0  0  0  0  0  0  0  0  0  0
   20.5050   -6.6790   -3.9360 H   0  0  0  0  0  0  0  0  0  0  0  0
   20.2280   -4.6290   -2.6290 H   0  0  0  0  0  0  0  0  0  0  0  0
   23.6610   -2.2140   -2.3220 H   0  0  0  0  0  0  0  0  0  0  0  0
   30.0900   -3.1670  -13.4890 C   0  0  0  0  0  0  0  0  0  0  0  0
   30.4950   -4.3600  -12.8250 O   0  0  0  0  0  0  0  0  0  0  0  0
   29.5700   -4.9920  -12.0440 C   0  0  0  0  0  0  0  0  0  0  0  0
   28.2480   -4.6000  -11.8580 C   0  0  0  0  0  0  0  0  0  0  0  0
   27.3890   -5.3670  -11.0570 C   0  0  0  0  0  0  0  0  0  0  0  0
   27.8260   -6.5420  -10.4150 C   0  0  0  0  0  0  0  0  0  0  0  0
   26.8580   -7.3680   -9.6570 C   0  0  0  0  0  0  0  0  0  0  0  0
   26.6280   -8.7140   -9.9890 C   0  0  0  0  0  0  0  0  0  0  0  0
   25.7640   -9.5160   -9.2390 C   0  0  0  0  0  0  0  0  0  0  0  0
   25.1060   -8.9900   -8.1340 C   0  0  0  0  0  0  0  0  0  0  0  0
   25.3260   -7.6610   -7.7690 C   0  0  0  0  0  0  0  0  0  0  0  0
   24.6790   -7.0330   -6.5880 C   0  0  0  0  0  0  0  0  0  0  0  0
   25.1250   -5.9570   -6.2080 O   0  0  0  0  0  0  0  0  0  0  0  0
   26.1800   -6.8520   -8.5460 C   0  0  0  0  0  0  0  0  0  0  0  0
   29.1920   -6.9110  -10.5510 C   0  0  0  0  0  0  0  0  0  0  0  0
   29.7510   -8.0960   -9.8860 C   0  0  0  0  0  0  0  0  0  0  0  0
   30.2650   -9.1380  -10.6590 C   0  0  0  0  0  0  0  0  0  0  0  0
   30.7060  -10.3130  -10.0580 C   0  0  0  0  0  0  0  0  0  0  0  0
   30.7830  -10.4580   -8.6670 C   0  0  0  0  0  0  0  0  0  0  0  0
   31.3670  -11.7170   -8.0380 C   0  0  1  0  0  0  0  0  0  0  0  0
   30.5100  -12.9510   -8.3420 C   0  0  0  0  0  0  0  0  0  0  0  0
   32.7810  -12.0240   -8.3370 N   0  0  0  0  0  0  0  0  0  0  0  0
   30.2440   -9.4240   -7.8890 C   0  0  0  0  0  0  0  0  0  0  0  0
   29.7300   -8.2640   -8.4930 C   0  0  0  0  0  0  0  0  0  0  0  0
   30.0280   -6.1330  -11.3900 C   0  0  0  0  0  0  0  0  0  0  0  0
   30.9470   -2.7960  -14.0620 H   0  0  0  0  0  0  0  0  0  0  0  0
   29.2780   -3.3590  -14.2000 H   0  0  0  0  0  0  0  0  0  0  0  0
   29.8100   -2.3890  -12.7720 H   0  0  0  0  0  0  0  0  0  0  0  0
   27.8440   -3.7110  -12.3270 H   0  0  0  0  0  0  0  0  0  0  0  0
   26.3550   -5.0480  -10.9490 H   0  0  0  0  0  0  0  0  0  0  0  0
   27.1520   -9.1640  -10.8300 H   0  0  0  0  0  0  0  0  0  0  0  0
   25.6240  -10.5600   -9.5050 H   0  0  0  0  0  0  0  0  0  0  0  0
   24.4480   -9.6440   -7.5780 H   0  0  0  0  0  0  0  0  0  0  0  0
   26.3390   -5.8100   -8.2640 H   0  0  0  0  0  0  0  0  0  0  0  0
   30.3050   -9.0630  -11.7420 H   0  0  0  0  0  0  0  0  0  0  0  0
   31.0070  -11.1150  -10.7210 H   0  0  0  0  0  0  0  0  0  0  0  0
   31.3510  -11.5750   -6.9480 H   0  0  0  0  0  0  0  0  0  0  0  0
   30.8900  -13.8190   -7.7900 H   0  0  0  0  0  0  0  0  0  0  0  0
   30.5430  -13.2080   -9.4060 H   0  0  0  0  0  0  0  0  0  0  0  0
   29.4630  -12.8000   -8.0620 H   0  0  0  0  0  0  0  0  0  0  0  0
   33.1650  -12.6960   -7.6940 H   0  0  0  0  0  0  0  0  0  0  0  0
   30.1910   -9.5060   -6.8050 H   0  0  0  0  0  0  0  0  0  0  0  0
   29.2940   -7.4870   -7.8650 H   0  0  0  0  0  0  0  0  0  0  0  0
   31.0670   -6.4380  -11.5400 H   0  0  0  0  0  0  0  0  0  0  0  0
   -3.8130    5.2510    2.3370 C   0  0  0  0  0  0  0  0  0  0  0  0
   -3.6450    5.0900    0.9150 O   0  0  0  0  0  0  0  0  0  0  0  0
   -4.6550    4.6660    2.7130 H   0  0  0  0  0  0  0  0  0  0  0  0
   -3.9840    6.3140    2.5260 H   0  0  0  0  0  0  0  0  0  0  0  0
   -2.9120    5.0000    2.8980 H   0  0  0  0  0  0  0  0  0  0  0  0
   34.5310  -15.4940  -10.8090 C   0  0  0  0  0  0  0  0  0  0  0  0
   33.8830  -14.1230  -11.0520 C   0  0  0  0  0  0  0  0  0  0  0  0
   34.8520  -13.2810  -11.8980 C   0  0  0  0  0  0  0  0  0  0  0  0
   32.5600  -14.3500  -11.8040 C   0  0  0  0  0  0  0  0  0  0  0  0
   33.6530  -13.5650   -9.7190 O   0  0  0  0  0  0  0  0  0  0  0  0
   33.1990  -12.2890   -9.6170 C   0  0  0  0  0  0  0  0  0  0  0  0
   33.1430  -11.5150  -10.5460 O   0  0  0  0  0  0  0  0  0  0  0  0
   34.7640  -16.0020  -11.7510 H   0  0  0  0  0  0  0  0  0  0  0  0
   35.4570  -15.3870  -10.2350 H   0  0  0  0  0  0  0  0  0  0  0  0
   33.8680  -16.1420  -10.2240 H   0  0  0  0  0  0  0  0  0  0  0  0
   35.7430  -13.0180  -11.3220 H   0  0  0  0  0  0  0  0  0  0  0  0
   34.4030  -12.3450  -12.2420 H   0  0  0  0  0  0  0  0  0  0  0  0
   35.1570  -13.8170  -12.8040 H   0  0  0  0  0  0  0  0  0  0  0  0
   31.8460  -14.9130  -11.1920 H   0  0  0  0  0  0  0  0  0  0  0  0
   32.0720  -13.4070  -12.0720 H   0  0  0  0  0  0  0  0  0  0  0  0
   32.7250  -14.9080  -12.7340 H   0  0  0  0  0  0  0  0  0  0  0  0
  1 27  1  0  0  0  0
  1  2  1  0  0  0  0
  2  3  1  0  0  0  0
  3  4  2  0  0  0  0
  4 29  1  0  0  0  0
  4  5  1  0  0  0  0
  5 30  1  0  0  0  0
  5  6  2  0  0  0  0
  6  7  1  0  0  0  0
  7  8  2  0  0  0  0
  8  9  1  0  0  0  0
  8 31  1  0  0  0  0
  9 32  1  0  0  0  0
 10 33  1  0  0  0  0
  9 10  2  0  0  0  0
 10 11  1  0  0  0  0
 11 12  1  0  0  0  0
 12178  1  0  0  0  0
 12 13  2  0  0  0  0
 11 14  2  0  0  0  0
  7 14  1  0  0  0  0
  6 15  1  0  0  0  0
 15 16  1  0  0  0  0
 16 17  2  0  0  0  0
 17 35  1  0  0  0  0
 17 18  1  0  0  0  0
 18 36  1  0  0  0  0
 18 19  2  0  0  0  0
 20 37  1  0  0  0  0
 19 20  1  0  0  0  0
 20 21  1  0  0  0  0
 21 40  1  0  0  0  0
 21 39  1  0  0  0  0
 20 22  1  0  0  0  0
 22 56  1  0  0  0  0
 23 24  2  0  0  0  0
 19 23  1  0  0  0  0
 16 24  1  0  0  0  0
  3 25  1  0  0  0  0
 15 25  2  0  0  0  0
  1 26  1  0  0  0  0
  1 28  1  0  0  0  0
 14 34  1  0  0  0  0
 21 38  1  0  0  0  0
 22 41  1  0  0  0  0
 23 42  1  0  0  0  0
 24 43  1  0  0  0  0
 25 44  1  0  0  0  0
 45 70  1  0  0  0  0
 45 71  1  0  0  0  0
 45 46  1  0  0  0  0
 47 48  2  0  0  0  0
 46 47  1  0  0  0  0
 48 73  1  0  0  0  0
 49 74  1  0  0  0  0
 48 49  1  0  0  0  0
 49 50  2  0  0  0  0
 50 51  1  0  0  0  0
 52 75  1  0  0  0  0
 51 52  2  0  0  0  0
 52 53  1  0  0  0  0
 53 54  2  0  0  0  0
 54 55  1  0  0  0  0
 55 58  2  0  0  0  0
 56 57  2  0  0  0  0
 55 56  1  0  0  0  0
 58 78  1  0  0  0  0
 51 58  1  0  0  0  0
 50 59  1  0  0  0  0
 59 69  2  0  0  0  0
 59 60  1  0  0  0  0
 60 61  2  0  0  0  0
 61 79  1  0  0  0  0
 61 62  1  0  0  0  0
 63 67  1  0  0  0  0
 62 63  2  0  0  0  0
 64 81  1  0  0  0  0
 63 64  1  0  0  0  0
 65 84  1  0  0  0  0
 64 65  1  0  0  0  0
 65 83  1  0  0  0  0
 64 66  1  0  0  0  0
 66100  1  0  0  0  0
 67 68  2  0  0  0  0
 68 87  1  0  0  0  0
 60 68  1  0  0  0  0
 47 69  1  0  0  0  0
 45 72  1  0  0  0  0
 53 76  1  0  0  0  0
 54 77  1  0  0  0  0
 62 80  1  0  0  0  0
 65 82  1  0  0  0  0
 66 85  1  0  0  0  0
 67 86  1  0  0  0  0
 69 88  1  0  0  0  0
 89114  1  0  0  0  0
 89116  1  0  0  0  0
 89 90  1  0  0  0  0
 91 92  2  0  0  0  0
 90 91  1  0  0  0  0
 92117  1  0  0  0  0
 93118  1  0  0  0  0
 92 93  1  0  0  0  0
 93 94  2  0  0  0  0
 95102  1  0  0  0  0
 94 95  1  0  0  0  0
 95 96  2  0  0  0  0
 97 98  2  0  0  0  0
 96 97  1  0  0  0  0
 98 99  1  0  0  0  0
 99102  2  0  0  0  0
 99100  1  0  0  0  0
100101  2  0  0  0  0
102122  1  0  0  0  0
 94103  1  0  0  0  0
103113  2  0  0  0  0
104112  1  0  0  0  0
103104  1  0  0  0  0
104105  2  0  0  0  0
106107  2  0  0  0  0
105106  1  0  0  0  0
107111  1  0  0  0  0
108110  1  0  0  0  0
108125  1  0  0  0  0
107108  1  0  0  0  0
108109  1  0  0  0  0
111130  1  0  0  0  0
111112  2  0  0  0  0
112131  1  0  0  0  0
 91113  1  0  0  0  0
 89115  1  0  0  0  0
 96119  1  0  0  0  0
 97120  1  0  0  0  0
 98121  1  0  0  0  0
105123  1  0  0  0  0
106124  1  0  0  0  0
109126  1  0  0  0  0
109127  1  0  0  0  0
109128  1  0  0  0  0
110129  1  0  0  0  0
113132  1  0  0  0  0
133134  1  0  0  0  0
133160  1  0  0  0  0
134135  1  0  0  0  0
135136  2  0  0  0  0
135157  1  0  0  0  0
136137  1  0  0  0  0
137162  1  0  0  0  0
137138  2  0  0  0  0
138139  1  0  0  0  0
139146  1  0  0  0  0
139140  2  0  0  0  0
140141  1  0  0  0  0
141142  2  0  0  0  0
142143  1  0  0  0  0
142165  1  0  0  0  0
143144  1  0  0  0  0
144145  2  0  0  0  0
110144  1  0  0  0  0
146166  1  0  0  0  0
143146  2  0  0  0  0
138147  1  0  0  0  0
147148  1  0  0  0  0
148156  2  0  0  0  0
149150  2  0  0  0  0
148149  1  0  0  0  0
150151  1  0  0  0  0
151152  1  0  0  0  0
151155  2  0  0  0  0
152169  1  0  0  0  0
153172  1  0  0  0  0
152153  1  0  0  0  0
153170  1  0  0  0  0
152154  1  0  0  0  0
154173  1  0  0  0  0
155174  1  0  0  0  0
155156  1  0  0  0  0
156175  1  0  0  0  0
147157  2  0  0  0  0
133158  1  0  0  0  0
133159  1  0  0  0  0
136161  1  0  0  0  0
140163  1  0  0  0  0
141164  1  0  0  0  0
149167  1  0  0  0  0
150168  1  0  0  0  0
153171  1  0  0  0  0
157176  1  0  0  0  0
177180  1  0  0  0  0
177179  1  0  0  0  0
177181  1  0  0  0  0
177178  1  0  0  0  0
182190  1  0  0  0  0
182191  1  0  0  0  0
182183  1  0  0  0  0
183186  1  0  0  0  0
184192  1  0  0  0  0
183184  1  0  0  0  0
185195  1  0  0  0  0
183185  1  0  0  0  0
186187  1  0  0  0  0
154187  1  0  0  0  0
187188  2  0  0  0  0
182189  1  0  0  0  0
184193  1  0  0  0  0
184194  1  0  0  0  0
185196  1  0  0  0  0
185197  1  0  0  0  0
M  END
> <atom.dprop.PartialCharge>
0.108280 -0.318920 0.122510 -0.202530 -0.083450 -0.070170 -0.051110 -0.084210 -0.150240 -0.072050 -0.135140 0.644840 -0.539640 -0.057010 0.007560 -0.039480 -0.111290 -0.121310 -0.093850 0.152510 -0.112360 -0.569980 -0.121310 -0.111290 -0.145070 0.045080 0.045080 0.045080 0.141620 0.140950 0.140110 0.141050 0.155720 0.160780 0.138760 0.135910 0.087740 0.044450 0.044450 0.044450 0.310880 0.135910 0.138760 0.157190 0.108860 -0.330220 0.122240 -0.159190 -0.088880 -0.072650 -0.038080 -0.092680 -0.146270 -0.074960 -0.141480 0.676510 -0.609140 -0.090070 0.012160 -0.041050 -0.107370 -0.117950 -0.103650 0.142240 -0.101280 -0.562960 -0.117950 -0.107370 -0.195800 0.048350 0.048350 0.048350 0.149560 0.138630 0.139740 0.131450 0.155630 0.142390 0.138290 0.134090 0.093730 0.043400 0.043400 0.043400 0.310200 0.134090 0.138290 0.160570 0.113000 -0.326270 0.127400 -0.202270 -0.080520 -0.069360 -0.042380 -0.094570 -0.142950 -0.100300 -0.140880 0.676160 -0.611690 -0.060500 0.003070 -0.037290 -0.112240 -0.116750 -0.108010 0.148780 -0.102130 -0.563780 -0.116750 -0.112240 -0.146670 0.045670 0.045670 0.045670 0.140770 0.141780 0.137400 0.134860 0.135010 0.160230 0.138410 0.132820 0.083430 0.045300 0.045300 0.045300 0.305340 0.132820 0.138410 0.155350 0.112290 -0.323870 0.126970 -0.205850 -0.085020 -0.070610 -0.040480 -0.091790 -0.138480 -0.103440 -0.143070 0.678490 -0.608680 -0.064510 0.007890 -0.038720 -0.112690 -0.115670 -0.114370 0.152010 -0.099580 -0.541610 -0.115670 -0.112690 -0.143190 0.045690 0.045690 0.045690 0.141220 0.138150 0.140950 0.138260 0.129820 0.160370 0.139840 0.136400 0.089500 0.047160 0.047160 0.047160 0.320610 0.136400 0.139840 0.157710 0.127330 -0.445720 0.054380 0.054380 0.054380 -0.113530 0.187440 -0.113530 -0.113530 -0.448430 0.747490 -0.599160 0.050960 0.050960 0.050960 0.050960 0.050960 0.050960 0.050960 0.050960 0.050960

$$$$
