pom_tetramer.pdb
 OpenBabel09052517553D

197208  0  0  1  0  0  0  0  0999 V2000
   -2.9210   -5.6770   -0.6570 C   0  0  0  0  0  0  0  0  0  0  0  0
   -1.7720   -4.8490   -0.7640 O   0  0  0  0  0  0  0  0  0  0  0  0
   -1.9050   -3.5440   -0.3810 C   0  0  0  0  0  0  0  0  0  0  0  0
   -3.0490   -2.9530    0.1440 C   0  0  0  0  0  0  0  0  0  0  0  0
   -3.0320   -1.6130    0.5430 C   0  0  0  0  0  0  0  0  0  0  0  0
   -1.8760   -0.8280    0.4140 C   0  0  0  0  0  0  0  0  0  0  0  0
   -1.8800    0.5530    0.9430 C   0  0  0  0  0  0  0  0  0  0  0  0
   -0.9350    0.9420    1.9100 C   0  0  0  0  0  0  0  0  0  0  0  0
   -0.8140    2.2690    2.2990 C   0  0  0  0  0  0  0  0  0  0  0  0
   -1.6480    3.2220    1.7320 C   0  0  0  0  0  0  0  0  0  0  0  0
   -2.7100    2.8450    0.9030 C   0  0  0  0  0  0  0  0  0  0  0  0
   -3.7360    3.8230    0.4270 C   0  0  0  0  0  0  0  0  0  0  0  0
   -4.5310    3.5410   -0.4610 O   0  0  0  0  0  0  0  0  0  0  0  0
   -2.7960    1.5120    0.4790 C   0  0  0  0  0  0  0  0  0  0  0  0
   -0.7240   -1.4070   -0.1760 C   0  0  0  0  0  0  0  0  0  0  0  0
    0.5200   -0.6460   -0.3820 C   0  0  0  0  0  0  0  0  0  0  0  0
    1.6830   -1.0420    0.2770 C   0  0  0  0  0  0  0  0  0  0  0  0
    2.8360   -0.2700    0.1890 C   0  0  0  0  0  0  0  0  0  0  0  0
    2.9290    0.8400   -0.6620 C   0  0  0  0  0  0  0  0  0  0  0  0
    4.2210    1.5940   -0.8270 C   0  0  1  0  0  0  0  0  0  0  0  0
    4.6770    2.2630    0.4710 C   0  0  0  0  0  0  0  0  0  0  0  0
    5.3250    0.8180   -1.4180 N   0  0  0  0  0  0  0  0  0  0  0  0
    1.7510    1.2540   -1.3040 C   0  0  0  0  0  0  0  0  0  0  0  0
    0.5640    0.5230   -1.1590 C   0  0  0  0  0  0  0  0  0  0  0  0
   -0.7570   -2.7690   -0.5420 C   0  0  0  0  0  0  0  0  0  0  0  0
   -2.6410   -6.6770   -1.0010 H   0  0  0  0  0  0  0  0  0  0  0  0
   -3.2550   -5.7650    0.3830 H   0  0  0  0  0  0  0  0  0  0  0  0
   -3.7290   -5.3160   -1.3020 H   0  0  0  0  0  0  0  0  0  0  0  0
   -3.9720   -3.5130    0.2800 H   0  0  0  0  0  0  0  0  0  0  0  0
   -3.9300   -1.1840    0.9800 H   0  0  0  0  0  0  0  0  0  0  0  0
   -0.2350    0.2160    2.3200 H   0  0  0  0  0  0  0  0  0  0  0  0
   -0.0560    2.5650    3.0190 H   0  0  0  0  0  0  0  0  0  0  0  0
   -1.4430    4.2620    1.9550 H   0  0  0  0  0  0  0  0  0  0  0  0
   -3.5540    1.2250   -0.2500 H   0  0  0  0  0  0  0  0  0  0  0  0
    1.7060   -1.9400    0.8870 H   0  0  0  0  0  0  0  0  0  0  0  0
    3.6830   -0.5830    0.7880 H   0  0  0  0  0  0  0  0  0  0  0  0
    4.0480    2.3920   -1.5540 H   0  0  0  0  0  0  0  0  0  0  0  0
    5.5570    2.8910    0.2890 H   0  0  0  0  0  0  0  0  0  0  0  0
    4.9590    1.5250    1.2310 H   0  0  0  0  0  0  0  0  0  0  0  0
    3.8890    2.8950    0.8940 H   0  0  0  0  0  0  0  0  0  0  0  0
    5.9520    1.4210   -1.9200 H   0  0  0  0  0  0  0  0  0  0  0  0
    1.7370    2.1560   -1.9110 H   0  0  0  0  0  0  0  0  0  0  0  0
   -0.3390    0.8860   -1.6430 H   0  0  0  0  0  0  0  0  0  0  0  0
    0.1350   -3.2380   -0.9570 H   0  0  0  0  0  0  0  0  0  0  0  0
   10.9010   -4.7930    6.1020 C   0  0  0  0  0  0  0  0  0  0  0  0
   11.4220   -4.6270    4.7910 O   0  0  0  0  0  0  0  0  0  0  0  0
   10.7770   -3.7440    3.9620 C   0  0  0  0  0  0  0  0  0  0  0  0
    9.6700   -2.9770    4.2630 C   0  0  0  0  0  0  0  0  0  0  0  0
    9.1370   -2.0930    3.3070 C   0  0  0  0  0  0  0  0  0  0  0  0
    9.7000   -1.9600    2.0210 C   0  0  0  0  0  0  0  0  0  0  0  0
    9.1640   -0.9520    1.0780 C   0  0  0  0  0  0  0  0  0  0  0  0
    9.9830    0.0580    0.5390 C   0  0  0  0  0  0  0  0  0  0  0  0
    9.4980    0.9750   -0.3960 C   0  0  0  0  0  0  0  0  0  0  0  0
    8.1750    0.9090   -0.8170 C   0  0  0  0  0  0  0  0  0  0  0  0
    7.3420   -0.0920   -0.3200 C   0  0  0  0  0  0  0  0  0  0  0  0
    5.9200   -0.2360   -0.7350 C   0  0  0  0  0  0  0  0  0  0  0  0
    5.3470   -1.2750   -0.4330 O   0  0  0  0  0  0  0  0  0  0  0  0
    7.8340   -1.0020    0.6400 C   0  0  0  0  0  0  0  0  0  0  0  0
   10.7940   -2.7940    1.6990 C   0  0  0  0  0  0  0  0  0  0  0  0
   11.4210   -2.7720    0.3630 C   0  0  0  0  0  0  0  0  0  0  0  0
   12.7580   -2.3990    0.2370 C   0  0  0  0  0  0  0  0  0  0  0  0
   13.3220   -2.2310   -1.0200 C   0  0  0  0  0  0  0  0  0  0  0  0
   12.6330   -2.5640   -2.1890 C   0  0  0  0  0  0  0  0  0  0  0  0
   13.3120   -2.5120   -3.5410 C   0  0  1  0  0  0  0  0  0  0  0  0
   13.7040   -1.0890   -3.9500 C   0  0  0  0  0  0  0  0  0  0  0  0
   14.4540   -3.4240   -3.6980 N   0  0  0  0  0  0  0  0  0  0  0  0
   11.2880   -2.9360   -2.0710 C   0  0  0  0  0  0  0  0  0  0  0  0
   10.6890   -3.0250   -0.8100 C   0  0  0  0  0  0  0  0  0  0  0  0
   11.3360   -3.6580    2.6820 C   0  0  0  0  0  0  0  0  0  0  0  0
   11.5410   -5.5020    6.6290 H   0  0  0  0  0  0  0  0  0  0  0  0
   10.9220   -3.8480    6.6640 H   0  0  0  0  0  0  0  0  0  0  0  0
    9.8890   -5.2090    6.0750 H   0  0  0  0  0  0  0  0  0  0  0  0
    9.1840   -3.0260    5.2350 H   0  0  0  0  0  0  0  0  0  0  0  0
    8.2690   -1.4900    3.5790 H   0  0  0  0  0  0  0  0  0  0  0  0
   11.0330    0.1140    0.8210 H   0  0  0  0  0  0  0  0  0  0  0  0
   10.1590    1.7310   -0.8100 H   0  0  0  0  0  0  0  0  0  0  0  0
    7.8390    1.6400   -1.5420 H   0  0  0  0  0  0  0  0  0  0  0  0
    7.1760   -1.7760    1.0350 H   0  0  0  0  0  0  0  0  0  0  0  0
   13.3720   -2.2060    1.1130 H   0  0  0  0  0  0  0  0  0  0  0  0
   14.3380   -1.8560   -1.0570 H   0  0  0  0  0  0  0  0  0  0  0  0
   12.5890   -2.8660   -4.2890 H   0  0  0  0  0  0  0  0  0  0  0  0
   14.0830   -1.0820   -4.9790 H   0  0  0  0  0  0  0  0  0  0  0  0
   14.5000   -0.6890   -3.3110 H   0  0  0  0  0  0  0  0  0  0  0  0
   12.8520   -0.4050   -3.8970 H   0  0  0  0  0  0  0  0  0  0  0  0
   14.5620   -3.6910   -4.6590 H   0  0  0  0  0  0  0  0  0  0  0  0
   10.6840   -3.1440   -2.9520 H   0  0  0  0  0  0  0  0  0  0  0  0
    9.6330   -3.2800   -0.7450 H   0  0  0  0  0  0  0  0  0  0  0  0
   12.1980   -4.2670    2.4470 H   0  0  0  0  0  0  0  0  0  0  0  0
   23.7330    1.0300   -0.1070 C   0  0  0  0  0  0  0  0  0  0  0  0
   23.7720   -0.1270   -0.9320 O   0  0  0  0  0  0  0  0  0  0  0  0
   22.6010   -0.5330   -1.5080 C   0  0  0  0  0  0  0  0  0  0  0  0
   21.3680    0.1010   -1.4130 C   0  0  0  0  0  0  0  0  0  0  0  0
   20.2550   -0.4190   -2.0920 C   0  0  0  0  0  0  0  0  0  0  0  0
   20.3400   -1.5860   -2.8750 C   0  0  0  0  0  0  0  0  0  0  0  0
   19.1600   -2.0380   -3.6510 C   0  0  0  0  0  0  0  0  0  0  0  0
   19.2260   -2.2080   -5.0460 C   0  0  0  0  0  0  0  0  0  0  0  0
   18.1350   -2.6750   -5.7820 C   0  0  0  0  0  0  0  0  0  0  0  0
   16.9450   -2.9880   -5.1380 C   0  0  0  0  0  0  0  0  0  0  0  0
   16.8550   -2.8620   -3.7530 C   0  0  0  0  0  0  0  0  0  0  0  0
   15.6340   -3.2370   -2.9920 C   0  0  0  0  0  0  0  0  0  0  0  0
   15.7410   -3.3570   -1.7770 O   0  0  0  0  0  0  0  0  0  0  0  0
   17.9510   -2.3590   -3.0210 C   0  0  0  0  0  0  0  0  0  0  0  0
   21.5830   -2.2660   -2.9200 C   0  0  0  0  0  0  0  0  0  0  0  0
   21.7610   -3.5230   -3.6670 C   0  0  0  0  0  0  0  0  0  0  0  0
   22.6670   -3.5690   -4.7250 C   0  0  0  0  0  0  0  0  0  0  0  0
   22.7530   -4.6990   -5.5270 C   0  0  0  0  0  0  0  0  0  0  0  0
   22.0460   -5.8700   -5.2340 C   0  0  0  0  0  0  0  0  0  0  0  0
   22.2520   -7.1270   -6.0510 C   0  0  1  0  0  0  0  0  0  0  0  0
   21.8080   -6.9680   -7.5090 C   0  0  0  0  0  0  0  0  0  0  0  0
   23.6090   -7.6900   -5.9900 N   0  0  0  0  0  0  0  0  0  0  0  0
   21.1370   -5.8330   -4.1690 C   0  0  0  0  0  0  0  0  0  0  0  0
   20.9900   -4.6680   -3.4050 C   0  0  0  0  0  0  0  0  0  0  0  0
   22.6980   -1.7070   -2.2560 C   0  0  0  0  0  0  0  0  0  0  0  0
   24.7410    1.1870    0.2920 H   0  0  0  0  0  0  0  0  0  0  0  0
   23.4630    1.9200   -0.6840 H   0  0  0  0  0  0  0  0  0  0  0  0
   23.0590    0.8890    0.7440 H   0  0  0  0  0  0  0  0  0  0  0  0
   21.2370    1.0070   -0.8320 H   0  0  0  0  0  0  0  0  0  0  0  0
   19.3090    0.1150   -2.0200 H   0  0  0  0  0  0  0  0  0  0  0  0
   20.1560   -2.0050   -5.5760 H   0  0  0  0  0  0  0  0  0  0  0  0
   18.2230   -2.8170   -6.8540 H   0  0  0  0  0  0  0  0  0  0  0  0
   16.1230   -3.3470   -5.7460 H   0  0  0  0  0  0  0  0  0  0  0  0
   17.8680   -2.2450   -1.9390 H   0  0  0  0  0  0  0  0  0  0  0  0
   23.3020   -2.7190   -4.9590 H   0  0  0  0  0  0  0  0  0  0  0  0
   23.4180   -4.6500   -6.3820 H   0  0  0  0  0  0  0  0  0  0  0  0
   21.6190   -7.9140   -5.6150 H   0  0  0  0  0  0  0  0  0  0  0  0
   21.8680   -7.9300   -8.0320 H   0  0  0  0  0  0  0  0  0  0  0  0
   22.4490   -6.2660   -8.0530 H   0  0  0  0  0  0  0  0  0  0  0  0
   20.7770   -6.6070   -7.5810 H   0  0  0  0  0  0  0  0  0  0  0  0
   23.5840   -8.6870   -6.1170 H   0  0  0  0  0  0  0  0  0  0  0  0
   20.5220   -6.6960   -3.9260 H   0  0  0  0  0  0  0  0  0  0  0  0
   20.2510   -4.6520   -2.6050 H   0  0  0  0  0  0  0  0  0  0  0  0
   23.6670   -2.2030   -2.3210 H   0  0  0  0  0  0  0  0  0  0  0  0
   30.0990   -3.1910  -13.5080 C   0  0  0  0  0  0  0  0  0  0  0  0
   30.4960   -4.3780  -12.8350 O   0  0  0  0  0  0  0  0  0  0  0  0
   29.5640   -5.0080  -12.0580 C   0  0  0  0  0  0  0  0  0  0  0  0
   28.2440   -4.6140  -11.8700 C   0  0  0  0  0  0  0  0  0  0  0  0
   27.3880   -5.3830  -11.0670 C   0  0  0  0  0  0  0  0  0  0  0  0
   27.8250   -6.5590  -10.4250 C   0  0  0  0  0  0  0  0  0  0  0  0
   26.8560   -7.3790   -9.6580 C   0  0  0  0  0  0  0  0  0  0  0  0
   26.6330   -8.7290   -9.9800 C   0  0  0  0  0  0  0  0  0  0  0  0
   25.7630   -9.5250   -9.2250 C   0  0  0  0  0  0  0  0  0  0  0  0
   25.1010   -8.9930   -8.1240 C   0  0  0  0  0  0  0  0  0  0  0  0
   25.3190   -7.6620   -7.7700 C   0  0  0  0  0  0  0  0  0  0  0  0
   24.6870   -7.0400   -6.5780 C   0  0  0  0  0  0  0  0  0  0  0  0
   25.1480   -5.9760   -6.1820 O   0  0  0  0  0  0  0  0  0  0  0  0
   26.1720   -6.8570   -8.5540 C   0  0  0  0  0  0  0  0  0  0  0  0
   29.1860   -6.9290  -10.5680 C   0  0  0  0  0  0  0  0  0  0  0  0
   29.7560   -8.1140   -9.8990 C   0  0  0  0  0  0  0  0  0  0  0  0
   30.2750   -9.1550  -10.6670 C   0  0  0  0  0  0  0  0  0  0  0  0
   30.7270  -10.3250  -10.0630 C   0  0  0  0  0  0  0  0  0  0  0  0
   30.8120  -10.4640   -8.6720 C   0  0  0  0  0  0  0  0  0  0  0  0
   31.3900  -11.7190   -8.0340 C   0  0  1  0  0  0  0  0  0  0  0  0
   30.5230  -12.9460   -8.3330 C   0  0  0  0  0  0  0  0  0  0  0  0
   32.8010  -12.0410   -8.3290 N   0  0  0  0  0  0  0  0  0  0  0  0
   30.2710   -9.4280   -7.8960 C   0  0  0  0  0  0  0  0  0  0  0  0
   29.7400   -8.2760   -8.5030 C   0  0  0  0  0  0  0  0  0  0  0  0
   30.0220   -6.1550  -11.4060 C   0  0  0  0  0  0  0  0  0  0  0  0
   30.9620   -2.8240  -14.0750 H   0  0  0  0  0  0  0  0  0  0  0  0
   29.2940   -3.3880  -14.2240 H   0  0  0  0  0  0  0  0  0  0  0  0
   29.8140   -2.4080  -12.7980 H   0  0  0  0  0  0  0  0  0  0  0  0
   27.8440   -3.7220  -12.3390 H   0  0  0  0  0  0  0  0  0  0  0  0
   26.3530   -5.0620  -10.9590 H   0  0  0  0  0  0  0  0  0  0  0  0
   27.1650   -9.1890  -10.8100 H   0  0  0  0  0  0  0  0  0  0  0  0
   25.6300  -10.5720   -9.4840 H   0  0  0  0  0  0  0  0  0  0  0  0
   24.4430   -9.6450   -7.5710 H   0  0  0  0  0  0  0  0  0  0  0  0
   26.3270   -5.8130   -8.2780 H   0  0  0  0  0  0  0  0  0  0  0  0
   30.3110   -9.0840  -11.7510 H   0  0  0  0  0  0  0  0  0  0  0  0
   31.0280  -11.1300  -10.7230 H   0  0  0  0  0  0  0  0  0  0  0  0
   31.3780  -11.5720   -6.9460 H   0  0  0  0  0  0  0  0  0  0  0  0
   30.8800  -13.8110   -7.7600 H   0  0  0  0  0  0  0  0  0  0  0  0
   30.5700  -13.2220   -9.3920 H   0  0  0  0  0  0  0  0  0  0  0  0
   29.4730  -12.7750   -8.0740 H   0  0  0  0  0  0  0  0  0  0  0  0
   33.1740  -12.7230   -7.6930 H   0  0  0  0  0  0  0  0  0  0  0  0
   30.2270   -9.5050   -6.8110 H   0  0  0  0  0  0  0  0  0  0  0  0
   29.2970   -7.5050   -7.8760 H   0  0  0  0  0  0  0  0  0  0  0  0
   31.0610   -6.4520  -11.5510 H   0  0  0  0  0  0  0  0  0  0  0  0
   -3.8480    5.2440    2.3700 C   0  0  0  0  0  0  0  0  0  0  0  0
   -3.6430    5.0720    0.9580 O   0  0  0  0  0  0  0  0  0  0  0  0
   -4.7500    4.7290    2.7080 H   0  0  0  0  0  0  0  0  0  0  0  0
   -3.9380    6.3170    2.5600 H   0  0  0  0  0  0  0  0  0  0  0  0
   -2.9980    4.9080    2.9620 H   0  0  0  0  0  0  0  0  0  0  0  0
   34.5490  -15.5110  -10.7850 C   0  0  0  0  0  0  0  0  0  0  0  0
   33.9020  -14.1430  -11.0450 C   0  0  0  0  0  0  0  0  0  0  0  0
   34.8670  -13.3080  -11.9010 C   0  0  0  0  0  0  0  0  0  0  0  0
   32.5810  -14.3700  -11.7960 C   0  0  0  0  0  0  0  0  0  0  0  0
   33.6730  -13.5770   -9.7190 O   0  0  0  0  0  0  0  0  0  0  0  0
   33.2140  -12.2920   -9.6150 C   0  0  0  0  0  0  0  0  0  0  0  0
   33.1680  -11.5220  -10.5510 O   0  0  0  0  0  0  0  0  0  0  0  0
   34.7940  -16.0270  -11.7210 H   0  0  0  0  0  0  0  0  0  0  0  0
   35.4660  -15.3990  -10.1990 H   0  0  0  0  0  0  0  0  0  0  0  0
   33.8790  -16.1560  -10.2030 H   0  0  0  0  0  0  0  0  0  0  0  0
   35.7710  -13.0670  -11.3390 H   0  0  0  0  0  0  0  0  0  0  0  0
   34.4280  -12.3640  -12.2300 H   0  0  0  0  0  0  0  0  0  0  0  0
   35.1500  -13.8440  -12.8170 H   0  0  0  0  0  0  0  0  0  0  0  0
   31.8580  -14.9190  -11.1790 H   0  0  0  0  0  0  0  0  0  0  0  0
   32.1010  -13.4240  -12.0770 H   0  0  0  0  0  0  0  0  0  0  0  0
   32.7440  -14.9400  -12.7190 H   0  0  0  0  0  0  0  0  0  0  0  0
  1 27  1  0  0  0  0
  2  1  1  0  0  0  0
  2  3  1  0  0  0  0
  3  4  1  0  0  0  0
  4 29  1  0  0  0  0
  4  5  2  0  0  0  0
  5 30  1  0  0  0  0
  6  5  1  0  0  0  0
  6  7  1  0  0  0  0
  7  8  1  0  0  0  0
  8  9  2  0  0  0  0
  8 31  1  0  0  0  0
  9 32  1  0  0  0  0
 10 33  1  0  0  0  0
 10  9  1  0  0  0  0
 11 10  2  0  0  0  0
 12 11  1  0  0  0  0
 12178  1  0  0  0  0
 13 12  2  0  0  0  0
 14 11  1  0  0  0  0
 14  7  2  0  0  0  0
 15  6  2  0  0  0  0
 16 15  1  0  0  0  0
 16 17  1  0  0  0  0
 17 35  1  0  0  0  0
 18 17  2  0  0  0  0
 18 36  1  0  0  0  0
 19 18  1  0  0  0  0
 20 37  1  6  0  0  0
 20 19  1  0  0  0  0
 20 21  1  0  0  0  0
 21 40  1  0  0  0  0
 21 39  1  0  0  0  0
 22 20  1  0  0  0  0
 22 56  1  0  0  0  0
 23 24  1  0  0  0  0
 23 19  2  0  0  0  0
 24 16  2  0  0  0  0
 25  3  2  0  0  0  0
 25 15  1  0  0  0  0
 26  1  1  0  0  0  0
 28  1  1  0  0  0  0
 34 14  1  0  0  0  0
 38 21  1  0  0  0  0
 41 22  1  0  0  0  0
 42 23  1  0  0  0  0
 43 24  1  0  0  0  0
 44 25  1  0  0  0  0
 45 70  1  0  0  0  0
 45 71  1  0  0  0  0
 46 45  1  0  0  0  0
 47 48  1  0  0  0  0
 47 46  1  0  0  0  0
 48 73  1  0  0  0  0
 49 74  1  0  0  0  0
 49 48  2  0  0  0  0
 50 49  1  0  0  0  0
 51 50  1  0  0  0  0
 52 75  1  0  0  0  0
 52 51  2  0  0  0  0
 53 52  1  0  0  0  0
 54 53  2  0  0  0  0
 54 55  1  0  0  0  0
 55 58  2  0  0  0  0
 56 57  2  0  0  0  0
 56 55  1  0  0  0  0
 58 78  1  0  0  0  0
 58 51  1  0  0  0  0
 59 50  2  0  0  0  0
 59 69  1  0  0  0  0
 60 59  1  0  0  0  0
 61 60  1  0  0  0  0
 61 79  1  0  0  0  0
 62 61  2  0  0  0  0
 63 67  2  0  0  0  0
 63 62  1  0  0  0  0
 64 81  1  6  0  0  0
 64 63  1  0  0  0  0
 65 84  1  0  0  0  0
 65 64  1  0  0  0  0
 65 83  1  0  0  0  0
 66 64  1  0  0  0  0
 66100  1  0  0  0  0
 67 68  1  0  0  0  0
 68 87  1  0  0  0  0
 68 60  2  0  0  0  0
 69 47  2  0  0  0  0
 72 45  1  0  0  0  0
 76 53  1  0  0  0  0
 77 54  1  0  0  0  0
 80 62  1  0  0  0  0
 82 65  1  0  0  0  0
 85 66  1  0  0  0  0
 86 67  1  0  0  0  0
 88 69  1  0  0  0  0
 89114  1  0  0  0  0
 89116  1  0  0  0  0
 90 89  1  0  0  0  0
 91 92  1  0  0  0  0
 91 90  1  0  0  0  0
 92117  1  0  0  0  0
 93118  1  0  0  0  0
 93 92  2  0  0  0  0
 94 93  1  0  0  0  0
 95102  1  0  0  0  0
 95 94  1  0  0  0  0
 96 95  2  0  0  0  0
 97 98  2  0  0  0  0
 97 96  1  0  0  0  0
 98 99  1  0  0  0  0
 99102  2  0  0  0  0
 99100  1  0  0  0  0
100101  2  0  0  0  0
102122  1  0  0  0  0
103 94  2  0  0  0  0
103113  1  0  0  0  0
104112  1  0  0  0  0
104103  1  0  0  0  0
105104  2  0  0  0  0
106107  2  0  0  0  0
106105  1  0  0  0  0
107111  1  0  0  0  0
108110  1  0  0  0  0
108125  1  1  0  0  0
108107  1  0  0  0  0
109108  1  0  0  0  0
111130  1  0  0  0  0
111112  2  0  0  0  0
112131  1  0  0  0  0
113 91  2  0  0  0  0
115 89  1  0  0  0  0
119 96  1  0  0  0  0
120 97  1  0  0  0  0
121 98  1  0  0  0  0
123105  1  0  0  0  0
124106  1  0  0  0  0
126109  1  0  0  0  0
127109  1  0  0  0  0
128109  1  0  0  0  0
129110  1  0  0  0  0
132113  1  0  0  0  0
133134  1  0  0  0  0
133160  1  0  0  0  0
134135  1  0  0  0  0
135136  2  0  0  0  0
135157  1  0  0  0  0
136137  1  0  0  0  0
137162  1  0  0  0  0
137138  2  0  0  0  0
138139  1  0  0  0  0
139146  1  0  0  0  0
140139  2  0  0  0  0
140141  1  0  0  0  0
141142  2  0  0  0  0
142143  1  0  0  0  0
142165  1  0  0  0  0
143144  1  0  0  0  0
144145  2  0  0  0  0
144110  1  0  0  0  0
146166  1  0  0  0  0
146143  2  0  0  0  0
147138  1  0  0  0  0
147148  1  0  0  0  0
148156  1  0  0  0  0
149150  1  0  0  0  0
149148  2  0  0  0  0
150151  2  0  0  0  0
151152  1  0  0  0  0
151155  1  0  0  0  0
152169  1  1  0  0  0
153172  1  0  0  0  0
153152  1  0  0  0  0
153170  1  0  0  0  0
154152  1  0  0  0  0
154173  1  0  0  0  0
155174  1  0  0  0  0
156155  2  0  0  0  0
156175  1  0  0  0  0
157147  2  0  0  0  0
158133  1  0  0  0  0
159133  1  0  0  0  0
161136  1  0  0  0  0
163140  1  0  0  0  0
164141  1  0  0  0  0
167149  1  0  0  0  0
168150  1  0  0  0  0
171153  1  0  0  0  0
176157  1  0  0  0  0
177180  1  0  0  0  0
177179  1  0  0  0  0
177181  1  0  0  0  0
178177  1  0  0  0  0
182191  1  0  0  0  0
182190  1  0  0  0  0
183182  1  0  0  0  0
183186  1  0  0  0  0
184192  1  0  0  0  0
184183  1  0  0  0  0
185195  1  0  0  0  0
185183  1  0  0  0  0
186187  1  0  0  0  0
187154  1  0  0  0  0
188187  2  0  0  0  0
189182  1  0  0  0  0
193184  1  0  0  0  0
194184  1  0  0  0  0
196185  1  0  0  0  0
197185  1  0  0  0  0
M  END
