pom_tetramer.pdb
 OpenBabel08282513493D

197208  0  0  1  0  0  0  0  0999 V2000
   -2.9080   -5.6810   -0.6890 C   0  0  0  0  0  0  0  0  0  0  0  0
   -1.7650   -4.8430   -0.7930 O   0  0  0  0  0  0  0  0  0  0  0  0
   -1.9120   -3.5430   -0.3980 C   0  0  0  0  0  0  0  0  0  0  0  0
   -3.0660   -2.9660    0.1230 C   0  0  0  0  0  0  0  0  0  0  0  0
   -3.0610   -1.6260    0.5290 C   0  0  0  0  0  0  0  0  0  0  0  0
   -1.9070   -0.8320    0.4220 C   0  0  0  0  0  0  0  0  0  0  0  0
   -1.9140    0.5460    0.9590 C   0  0  0  0  0  0  0  0  0  0  0  0
   -0.9580    0.9280    1.9180 C   0  0  0  0  0  0  0  0  0  0  0  0
   -0.7860    2.2610    2.2700 C   0  0  0  0  0  0  0  0  0  0  0  0
   -1.6060    3.2310    1.7020 C   0  0  0  0  0  0  0  0  0  0  0  0
   -2.6880    2.8690    0.8800 C   0  0  0  0  0  0  0  0  0  0  0  0
   -3.6560    3.8790    0.3670 C   0  0  0  0  0  0  0  0  0  0  0  0
   -4.4150    3.6440   -0.5630 O   0  0  0  0  0  0  0  0  0  0  0  0
   -2.8120    1.5250    0.4900 C   0  0  0  0  0  0  0  0  0  0  0  0
   -0.7430   -1.4030   -0.1600 C   0  0  0  0  0  0  0  0  0  0  0  0
    0.5090   -0.6440   -0.3480 C   0  0  0  0  0  0  0  0  0  0  0  0
    1.6680   -1.0390    0.3250 C   0  0  0  0  0  0  0  0  0  0  0  0
    2.8400   -0.2940    0.2230 C   0  0  0  0  0  0  0  0  0  0  0  0
    2.9300    0.8130   -0.6270 C   0  0  0  0  0  0  0  0  0  0  0  0
    4.2240    1.5800   -0.7960 C   0  0  1  0  0  0  0  0  0  0  0  0
    4.6720    2.2510    0.5060 C   0  0  0  0  0  0  0  0  0  0  0  0
    5.3330    0.8440   -1.4110 N   0  0  0  0  0  0  0  0  0  0  0  0
    1.7660    1.2250   -1.2900 C   0  0  0  0  0  0  0  0  0  0  0  0
    0.5700    0.5090   -1.1460 C   0  0  0  0  0  0  0  0  0  0  0  0
   -0.7670   -2.7600   -0.5430 C   0  0  0  0  0  0  0  0  0  0  0  0
   -2.6250   -6.6760   -1.0470 H   0  0  0  0  0  0  0  0  0  0  0  0
   -3.2330   -5.7810    0.3520 H   0  0  0  0  0  0  0  0  0  0  0  0
   -3.7200   -5.3150   -1.3250 H   0  0  0  0  0  0  0  0  0  0  0  0
   -3.9820   -3.5320    0.2450 H   0  0  0  0  0  0  0  0  0  0  0  0
   -3.9680   -1.2100    0.9630 H   0  0  0  0  0  0  0  0  0  0  0  0
   -0.2830    0.1860    2.3420 H   0  0  0  0  0  0  0  0  0  0  0  0
    0.0080    2.5470    2.9530 H   0  0  0  0  0  0  0  0  0  0  0  0
   -1.3830    4.2690    1.9120 H   0  0  0  0  0  0  0  0  0  0  0  0
   -3.5800    1.2470   -0.2320 H   0  0  0  0  0  0  0  0  0  0  0  0
    1.6700   -1.9270    0.9530 H   0  0  0  0  0  0  0  0  0  0  0  0
    3.6960   -0.6200    0.8070 H   0  0  0  0  0  0  0  0  0  0  0  0
    4.0350    2.3900   -1.5120 H   0  0  0  0  0  0  0  0  0  0  0  0
    5.5530    2.8790    0.3300 H   0  0  0  0  0  0  0  0  0  0  0  0
    4.9420    1.5220    1.2740 H   0  0  0  0  0  0  0  0  0  0  0  0
    3.8810    2.8910    0.9110 H   0  0  0  0  0  0  0  0  0  0  0  0
    5.9700    1.4790   -1.8630 H   0  0  0  0  0  0  0  0  0  0  0  0
    1.7670    2.1140   -1.9170 H   0  0  0  0  0  0  0  0  0  0  0  0
   -0.3220    0.8650   -1.6560 H   0  0  0  0  0  0  0  0  0  0  0  0
    0.1300   -3.2180   -0.9580 H   0  0  0  0  0  0  0  0  0  0  0  0
   10.8880   -4.7850    6.0920 C   0  0  0  0  0  0  0  0  0  0  0  0
   11.4050   -4.6300    4.7780 O   0  0  0  0  0  0  0  0  0  0  0  0
   10.7600   -3.7580    3.9470 C   0  0  0  0  0  0  0  0  0  0  0  0
    9.6550   -2.9710    4.2600 C   0  0  0  0  0  0  0  0  0  0  0  0
    9.1260   -2.0870    3.3120 C   0  0  0  0  0  0  0  0  0  0  0  0
    9.6840   -1.9650    2.0260 C   0  0  0  0  0  0  0  0  0  0  0  0
    9.1560   -0.9530    1.0800 C   0  0  0  0  0  0  0  0  0  0  0  0
    9.9830    0.0710    0.5850 C   0  0  0  0  0  0  0  0  0  0  0  0
    9.5170    0.9840   -0.3640 C   0  0  0  0  0  0  0  0  0  0  0  0
    8.2060    0.9040   -0.8310 C   0  0  0  0  0  0  0  0  0  0  0  0
    7.3540   -0.1010   -0.3550 C   0  0  0  0  0  0  0  0  0  0  0  0
    5.9300   -0.2420   -0.7790 C   0  0  0  0  0  0  0  0  0  0  0  0
    5.3540   -1.3030   -0.5580 O   0  0  0  0  0  0  0  0  0  0  0  0
    7.8370   -1.0110    0.6050 C   0  0  0  0  0  0  0  0  0  0  0  0
   10.7750   -2.8040    1.6900 C   0  0  0  0  0  0  0  0  0  0  0  0
   11.4100   -2.7670    0.3640 C   0  0  0  0  0  0  0  0  0  0  0  0
   12.7340   -2.3400    0.2490 C   0  0  0  0  0  0  0  0  0  0  0  0
   13.3270   -2.2040   -1.0010 C   0  0  0  0  0  0  0  0  0  0  0  0
   12.6620   -2.5860   -2.1710 C   0  0  0  0  0  0  0  0  0  0  0  0
   13.3370   -2.5150   -3.5230 C   0  0  1  0  0  0  0  0  0  0  0  0
   13.7020   -1.0800   -3.9150 C   0  0  0  0  0  0  0  0  0  0  0  0
   14.4800   -3.4180   -3.7180 N   0  0  0  0  0  0  0  0  0  0  0  0
   11.3270   -3.0030   -2.0610 C   0  0  0  0  0  0  0  0  0  0  0  0
   10.7080   -3.0850   -0.8090 C   0  0  0  0  0  0  0  0  0  0  0  0
   11.3020   -3.6740    2.6660 C   0  0  0  0  0  0  0  0  0  0  0  0
   11.5300   -5.4970    6.6200 H   0  0  0  0  0  0  0  0  0  0  0  0
   10.9160   -3.8400    6.6450 H   0  0  0  0  0  0  0  0  0  0  0  0
    9.8760   -5.2010    6.0670 H   0  0  0  0  0  0  0  0  0  0  0  0
    9.1890   -3.0140    5.2410 H   0  0  0  0  0  0  0  0  0  0  0  0
    8.2780   -1.4650    3.5950 H   0  0  0  0  0  0  0  0  0  0  0  0
   11.0190    0.1390    0.9100 H   0  0  0  0  0  0  0  0  0  0  0  0
   10.1890    1.7480   -0.7490 H   0  0  0  0  0  0  0  0  0  0  0  0
    7.8950    1.6280   -1.5720 H   0  0  0  0  0  0  0  0  0  0  0  0
    7.1760   -1.7970    0.9760 H   0  0  0  0  0  0  0  0  0  0  0  0
   13.3150   -2.0890    1.1330 H   0  0  0  0  0  0  0  0  0  0  0  0
   14.3390   -1.8140   -1.0360 H   0  0  0  0  0  0  0  0  0  0  0  0
   12.6090   -2.8630   -4.2700 H   0  0  0  0  0  0  0  0  0  0  0  0
   14.0680   -1.0490   -4.9480 H   0  0  0  0  0  0  0  0  0  0  0  0
   14.4930   -0.6690   -3.2780 H   0  0  0  0  0  0  0  0  0  0  0  0
   12.8340   -0.4160   -3.8440 H   0  0  0  0  0  0  0  0  0  0  0  0
   14.5790   -3.6660   -4.6860 H   0  0  0  0  0  0  0  0  0  0  0  0
   10.7470   -3.2560   -2.9460 H   0  0  0  0  0  0  0  0  0  0  0  0
    9.6640   -3.3870   -0.7540 H   0  0  0  0  0  0  0  0  0  0  0  0
   12.1630   -4.2960    2.4220 H   0  0  0  0  0  0  0  0  0  0  0  0
   23.7190    1.0260   -0.1120 C   0  0  0  0  0  0  0  0  0  0  0  0
   23.7550   -0.1550   -0.9000 O   0  0  0  0  0  0  0  0  0  0  0  0
   22.5870   -0.5480   -1.4900 C   0  0  0  0  0  0  0  0  0  0  0  0
   21.3610    0.1030   -1.4130 C   0  0  0  0  0  0  0  0  0  0  0  0
   20.2510   -0.4000   -2.1080 C   0  0  0  0  0  0  0  0  0  0  0  0
   20.3390   -1.5650   -2.8930 C   0  0  0  0  0  0  0  0  0  0  0  0
   19.1700   -2.0160   -3.6800 C   0  0  0  0  0  0  0  0  0  0  0  0
   19.2370   -2.1390   -5.0780 C   0  0  0  0  0  0  0  0  0  0  0  0
   18.1600   -2.6310   -5.8180 C   0  0  0  0  0  0  0  0  0  0  0  0
   16.9830   -3.0050   -5.1750 C   0  0  0  0  0  0  0  0  0  0  0  0
   16.8880   -2.8990   -3.7850 C   0  0  0  0  0  0  0  0  0  0  0  0
   15.6630   -3.2620   -3.0160 C   0  0  0  0  0  0  0  0  0  0  0  0
   15.7610   -3.3720   -1.7990 O   0  0  0  0  0  0  0  0  0  0  0  0
   17.9770   -2.3910   -3.0500 C   0  0  0  0  0  0  0  0  0  0  0  0
   21.5740   -2.2590   -2.9230 C   0  0  0  0  0  0  0  0  0  0  0  0
   21.7500   -3.5050   -3.6840 C   0  0  0  0  0  0  0  0  0  0  0  0
   22.6290   -3.5310   -4.7680 C   0  0  0  0  0  0  0  0  0  0  0  0
   22.7430   -4.6690   -5.5580 C   0  0  0  0  0  0  0  0  0  0  0  0
   22.0660   -5.8500   -5.2420 C   0  0  0  0  0  0  0  0  0  0  0  0
   22.2580   -7.1140   -6.0520 C   0  0  1  0  0  0  0  0  0  0  0  0
   21.7810   -6.9530   -7.4980 C   0  0  0  0  0  0  0  0  0  0  0  0
   23.6030   -7.7050   -6.0060 N   0  0  0  0  0  0  0  0  0  0  0  0
   21.1660   -5.8240   -4.1660 C   0  0  0  0  0  0  0  0  0  0  0  0
   21.0070   -4.6630   -3.4020 C   0  0  0  0  0  0  0  0  0  0  0  0
   22.6810   -1.7240   -2.2340 C   0  0  0  0  0  0  0  0  0  0  0  0
   24.7260    1.1920    0.2860 H   0  0  0  0  0  0  0  0  0  0  0  0
   23.4530    1.8990   -0.7170 H   0  0  0  0  0  0  0  0  0  0  0  0
   23.0400    0.9110    0.7390 H   0  0  0  0  0  0  0  0  0  0  0  0
   21.2320    1.0110   -0.8340 H   0  0  0  0  0  0  0  0  0  0  0  0
   19.3100    0.1420   -2.0490 H   0  0  0  0  0  0  0  0  0  0  0  0
   20.1550   -1.8810   -5.6040 H   0  0  0  0  0  0  0  0  0  0  0  0
   18.2490   -2.7380   -6.8960 H   0  0  0  0  0  0  0  0  0  0  0  0
   16.1740   -3.3850   -5.7860 H   0  0  0  0  0  0  0  0  0  0  0  0
   17.9010   -2.3080   -1.9660 H   0  0  0  0  0  0  0  0  0  0  0  0
   23.2240   -2.6570   -5.0200 H   0  0  0  0  0  0  0  0  0  0  0  0
   23.4020   -4.6170   -6.4190 H   0  0  0  0  0  0  0  0  0  0  0  0
   21.6250   -7.8910   -5.6020 H   0  0  0  0  0  0  0  0  0  0  0  0
   21.8300   -7.9140   -8.0250 H   0  0  0  0  0  0  0  0  0  0  0  0
   22.4000   -6.2440   -8.0580 H   0  0  0  0  0  0  0  0  0  0  0  0
   20.7450   -6.6010   -7.5360 H   0  0  0  0  0  0  0  0  0  0  0  0
   23.5600   -8.6980   -6.1560 H   0  0  0  0  0  0  0  0  0  0  0  0
   20.5680   -6.6970   -3.9160 H   0  0  0  0  0  0  0  0  0  0  0  0
   20.2850   -4.6620   -2.5870 H   0  0  0  0  0  0  0  0  0  0  0  0
   23.6420   -2.2360   -2.2810 H   0  0  0  0  0  0  0  0  0  0  0  0
   30.0980   -3.2010  -13.4800 C   0  0  0  0  0  0  0  0  0  0  0  0
   30.4960   -4.3890  -12.8080 O   0  0  0  0  0  0  0  0  0  0  0  0
   29.5630   -5.0110  -12.0270 C   0  0  0  0  0  0  0  0  0  0  0  0
   28.2420   -4.6170  -11.8440 C   0  0  0  0  0  0  0  0  0  0  0  0
   27.3860   -5.3830  -11.0400 C   0  0  0  0  0  0  0  0  0  0  0  0
   27.8270   -6.5580  -10.3990 C   0  0  0  0  0  0  0  0  0  0  0  0
   26.8660   -7.3870   -9.6400 C   0  0  0  0  0  0  0  0  0  0  0  0
   26.6260   -8.7250   -9.9960 C   0  0  0  0  0  0  0  0  0  0  0  0
   25.7780   -9.5380   -9.2420 C   0  0  0  0  0  0  0  0  0  0  0  0
   25.1400   -9.0270   -8.1160 C   0  0  0  0  0  0  0  0  0  0  0  0
   25.3570   -7.6990   -7.7370 C   0  0  0  0  0  0  0  0  0  0  0  0
   24.7030   -7.0680   -6.5560 C   0  0  0  0  0  0  0  0  0  0  0  0
   25.1530   -6.0020   -6.1500 O   0  0  0  0  0  0  0  0  0  0  0  0
   26.2080   -6.8850   -8.5100 C   0  0  0  0  0  0  0  0  0  0  0  0
   29.1870   -6.9290  -10.5410 C   0  0  0  0  0  0  0  0  0  0  0  0
   29.7510   -8.1230   -9.8840 C   0  0  0  0  0  0  0  0  0  0  0  0
   30.2240   -9.1780  -10.6640 C   0  0  0  0  0  0  0  0  0  0  0  0
   30.6810  -10.3520  -10.0720 C   0  0  0  0  0  0  0  0  0  0  0  0
   30.7970  -10.4830   -8.6830 C   0  0  0  0  0  0  0  0  0  0  0  0
   31.3700  -11.7380   -8.0460 C   0  0  1  0  0  0  0  0  0  0  0  0
   30.4900  -12.9600   -8.3290 C   0  0  0  0  0  0  0  0  0  0  0  0
   32.7760  -12.0580   -8.3410 N   0  0  0  0  0  0  0  0  0  0  0  0
   30.2970   -9.4350   -7.8940 C   0  0  0  0  0  0  0  0  0  0  0  0
   29.7730   -8.2760   -8.4880 C   0  0  0  0  0  0  0  0  0  0  0  0
   30.0240   -6.1540  -11.3710 C   0  0  0  0  0  0  0  0  0  0  0  0
   30.9620   -2.8310  -14.0420 H   0  0  0  0  0  0  0  0  0  0  0  0
   29.2960   -3.4010  -14.1980 H   0  0  0  0  0  0  0  0  0  0  0  0
   29.8080   -2.4240  -12.7670 H   0  0  0  0  0  0  0  0  0  0  0  0
   27.8410   -3.7290  -12.3210 H   0  0  0  0  0  0  0  0  0  0  0  0
   26.3500   -5.0640  -10.9330 H   0  0  0  0  0  0  0  0  0  0  0  0
   27.1330   -9.1580  -10.8560 H   0  0  0  0  0  0  0  0  0  0  0  0
   25.6330  -10.5770   -9.5260 H   0  0  0  0  0  0  0  0  0  0  0  0
   24.4970   -9.6930   -7.5550 H   0  0  0  0  0  0  0  0  0  0  0  0
   26.3760   -5.8490   -8.2140 H   0  0  0  0  0  0  0  0  0  0  0  0
   30.2220   -9.1080  -11.7500 H   0  0  0  0  0  0  0  0  0  0  0  0
   30.9680  -11.1610  -10.7350 H   0  0  0  0  0  0  0  0  0  0  0  0
   31.3640  -11.5880   -6.9570 H   0  0  0  0  0  0  0  0  0  0  0  0
   30.8470  -13.8260   -7.7590 H   0  0  0  0  0  0  0  0  0  0  0  0
   30.5120  -13.2400   -9.3870 H   0  0  0  0  0  0  0  0  0  0  0  0
   29.4480  -12.7770   -8.0480 H   0  0  0  0  0  0  0  0  0  0  0  0
   33.1340  -12.7740   -7.7280 H   0  0  0  0  0  0  0  0  0  0  0  0
   30.2870   -9.5100   -6.8090 H   0  0  0  0  0  0  0  0  0  0  0  0
   29.3680   -7.4920   -7.8500 H   0  0  0  0  0  0  0  0  0  0  0  0
   31.0630   -6.4510  -11.5140 H   0  0  0  0  0  0  0  0  0  0  0  0
   -3.8440    5.2790    2.3140 C   0  0  0  0  0  0  0  0  0  0  0  0
   -3.5450    5.1240    0.9140 O   0  0  0  0  0  0  0  0  0  0  0  0
   -4.6810    4.6490    2.6290 H   0  0  0  0  0  0  0  0  0  0  0  0
   -4.1000    6.3290    2.4780 H   0  0  0  0  0  0  0  0  0  0  0  0
   -2.9680    5.0760    2.9360 H   0  0  0  0  0  0  0  0  0  0  0  0
   34.5220  -15.5130  -10.7710 C   0  0  0  0  0  0  0  0  0  0  0  0
   33.8970  -14.1350  -11.0340 C   0  0  0  0  0  0  0  0  0  0  0  0
   34.8770  -13.3180  -11.8870 C   0  0  0  0  0  0  0  0  0  0  0  0
   32.5620  -14.3420  -11.7690 C   0  0  0  0  0  0  0  0  0  0  0  0
   33.6750  -13.5610   -9.7130 O   0  0  0  0  0  0  0  0  0  0  0  0
   33.2110  -12.2870   -9.6200 C   0  0  0  0  0  0  0  0  0  0  0  0
   33.1580  -11.5050  -10.5470 O   0  0  0  0  0  0  0  0  0  0  0  0
   34.7440  -16.0400  -11.7060 H   0  0  0  0  0  0  0  0  0  0  0  0
   35.4520  -15.4120  -10.2010 H   0  0  0  0  0  0  0  0  0  0  0  0
   33.8530  -16.1400  -10.1720 H   0  0  0  0  0  0  0  0  0  0  0  0
   35.7660  -13.0490  -11.3070 H   0  0  0  0  0  0  0  0  0  0  0  0
   34.4350  -12.3850  -12.2500 H   0  0  0  0  0  0  0  0  0  0  0  0
   35.1880  -13.8750  -12.7770 H   0  0  0  0  0  0  0  0  0  0  0  0
   31.8540  -14.9020  -11.1490 H   0  0  0  0  0  0  0  0  0  0  0  0
   32.0790  -13.3910  -12.0130 H   0  0  0  0  0  0  0  0  0  0  0  0
   32.7060  -14.8920  -12.7070 H   0  0  0  0  0  0  0  0  0  0  0  0
  1 27  1  0  0  0  0
  2  1  1  0  0  0  0
  2  3  1  0  0  0  0
  3  4  1  0  0  0  0
  4 29  1  0  0  0  0
  4  5  2  0  0  0  0
  5 30  1  0  0  0  0
  6  5  1  0  0  0  0
  6  7  1  0  0  0  0
  7  8  1  0  0  0  0
  8  9  2  0  0  0  0
  8 31  1  0  0  0  0
  9 32  1  0  0  0  0
 10 33  1  0  0  0  0
 10  9  1  0  0  0  0
 11 10  2  0  0  0  0
 12 11  1  0  0  0  0
 12178  1  0  0  0  0
 13 12  2  0  0  0  0
 14 11  1  0  0  0  0
 14  7  2  0  0  0  0
 15  6  2  0  0  0  0
 16 15  1  0  0  0  0
 16 17  1  0  0  0  0
 17 35  1  0  0  0  0
 18 17  2  0  0  0  0
 18 36  1  0  0  0  0
 19 18  1  0  0  0  0
 20 37  1  6  0  0  0
 20 19  1  0  0  0  0
 20 21  1  0  0  0  0
 21 40  1  0  0  0  0
 21 39  1  0  0  0  0
 22 20  1  0  0  0  0
 22 56  1  0  0  0  0
 23 24  1  0  0  0  0
 23 19  2  0  0  0  0
 24 16  2  0  0  0  0
 25  3  2  0  0  0  0
 25 15  1  0  0  0  0
 26  1  1  0  0  0  0
 28  1  1  0  0  0  0
 34 14  1  0  0  0  0
 38 21  1  0  0  0  0
 41 22  1  0  0  0  0
 42 23  1  0  0  0  0
 43 24  1  0  0  0  0
 44 25  1  0  0  0  0
 45 70  1  0  0  0  0
 45 71  1  0  0  0  0
 46 45  1  0  0  0  0
 47 48  1  0  0  0  0
 47 46  1  0  0  0  0
 48 73  1  0  0  0  0
 49 74  1  0  0  0  0
 49 48  2  0  0  0  0
 50 49  1  0  0  0  0
 51 50  1  0  0  0  0
 52 75  1  0  0  0  0
 52 51  2  0  0  0  0
 53 52  1  0  0  0  0
 54 53  2  0  0  0  0
 54 55  1  0  0  0  0
 55 58  2  0  0  0  0
 56 57  2  0  0  0  0
 56 55  1  0  0  0  0
 58 78  1  0  0  0  0
 58 51  1  0  0  0  0
 59 50  2  0  0  0  0
 59 69  1  0  0  0  0
 60 59  1  0  0  0  0
 61 60  1  0  0  0  0
 61 79  1  0  0  0  0
 62 61  2  0  0  0  0
 63 67  2  0  0  0  0
 63 62  1  0  0  0  0
 64 81  1  6  0  0  0
 64 63  1  0  0  0  0
 65 84  1  0  0  0  0
 65 64  1  0  0  0  0
 65 83  1  0  0  0  0
 66 64  1  0  0  0  0
 66100  1  0  0  0  0
 67 68  1  0  0  0  0
 68 87  1  0  0  0  0
 68 60  2  0  0  0  0
 69 47  2  0  0  0  0
 72 45  1  0  0  0  0
 76 53  1  0  0  0  0
 77 54  1  0  0  0  0
 80 62  1  0  0  0  0
 82 65  1  0  0  0  0
 85 66  1  0  0  0  0
 86 67  1  0  0  0  0
 88 69  1  0  0  0  0
 89114  1  0  0  0  0
 89116  1  0  0  0  0
 90 89  1  0  0  0  0
 91 92  1  0  0  0  0
 91 90  1  0  0  0  0
 92117  1  0  0  0  0
 93118  1  0  0  0  0
 93 92  2  0  0  0  0
 94 93  1  0  0  0  0
 95102  1  0  0  0  0
 95 94  1  0  0  0  0
 96 95  2  0  0  0  0
 97 98  2  0  0  0  0
 97 96  1  0  0  0  0
 98 99  1  0  0  0  0
 99102  2  0  0  0  0
 99100  1  0  0  0  0
100101  2  0  0  0  0
102122  1  0  0  0  0
103 94  2  0  0  0  0
103113  1  0  0  0  0
104112  1  0  0  0  0
104103  1  0  0  0  0
105104  2  0  0  0  0
106107  2  0  0  0  0
106105  1  0  0  0  0
107111  1  0  0  0  0
108110  1  0  0  0  0
108125  1  1  0  0  0
108107  1  0  0  0  0
109108  1  0  0  0  0
111130  1  0  0  0  0
111112  2  0  0  0  0
112131  1  0  0  0  0
113 91  2  0  0  0  0
115 89  1  0  0  0  0
119 96  1  0  0  0  0
120 97  1  0  0  0  0
121 98  1  0  0  0  0
123105  1  0  0  0  0
124106  1  0  0  0  0
126109  1  0  0  0  0
127109  1  0  0  0  0
128109  1  0  0  0  0
129110  1  0  0  0  0
132113  1  0  0  0  0
133134  1  0  0  0  0
133160  1  0  0  0  0
134135  1  0  0  0  0
135136  2  0  0  0  0
135157  1  0  0  0  0
136137  1  0  0  0  0
137162  1  0  0  0  0
137138  2  0  0  0  0
138139  1  0  0  0  0
139146  1  0  0  0  0
140139  2  0  0  0  0
140141  1  0  0  0  0
141142  2  0  0  0  0
142143  1  0  0  0  0
142165  1  0  0  0  0
143144  1  0  0  0  0
144145  2  0  0  0  0
144110  1  0  0  0  0
146166  1  0  0  0  0
146143  2  0  0  0  0
147138  1  0  0  0  0
147148  1  0  0  0  0
148156  1  0  0  0  0
149150  1  0  0  0  0
149148  2  0  0  0  0
150151  2  0  0  0  0
151152  1  0  0  0  0
151155  1  0  0  0  0
152169  1  1  0  0  0
153172  1  0  0  0  0
153152  1  0  0  0  0
153170  1  0  0  0  0
154152  1  0  0  0  0
154173  1  0  0  0  0
155174  1  0  0  0  0
156155  2  0  0  0  0
156175  1  0  0  0  0
157147  2  0  0  0  0
158133  1  0  0  0  0
159133  1  0  0  0  0
161136  1  0  0  0  0
163140  1  0  0  0  0
164141  1  0  0  0  0
167149  1  0  0  0  0
168150  1  0  0  0  0
171153  1  0  0  0  0
176157  1  0  0  0  0
177180  1  0  0  0  0
177179  1  0  0  0  0
177181  1  0  0  0  0
178177  1  0  0  0  0
182190  1  0  0  0  0
182191  1  0  0  0  0
183182  1  0  0  0  0
183186  1  0  0  0  0
184192  1  0  0  0  0
184183  1  0  0  0  0
185195  1  0  0  0  0
185183  1  0  0  0  0
186187  1  0  0  0  0
187154  1  0  0  0  0
188187  2  0  0  0  0
189182  1  0  0  0  0
193184  1  0  0  0  0
194184  1  0  0  0  0
196185  1  0  0  0  0
197185  1  0  0  0  0
M  END
