pop_tetramer.pdb
  -OEChem-10072411413D

197208  0     1  0  0  0  0  0999 V2000
   -2.4060   -4.9390    0.7180 C   0  0  0  0  0  0  0  0  0  0  0  0
   -2.0470   -5.6510   -0.2070 O   0  0  0  0  0  0  0  0  0  0  0  0
   -2.4070   -3.4540    0.6540 C   0  0  0  0  0  0  0  0  0  0  0  0
   -2.8400   -2.6450    1.7100 C   0  0  0  0  0  0  0  0  0  0  0  0
   -2.7070   -1.2520    1.6280 C   0  0  0  0  0  0  0  0  0  0  0  0
   -2.1470   -0.6400    0.4930 C   0  0  0  0  0  0  0  0  0  0  0  0
   -1.9620    0.8280    0.4270 C   0  0  0  0  0  0  0  0  0  0  0  0
   -0.7050    1.4440    0.1730 C   0  0  0  0  0  0  0  0  0  0  0  0
   -0.6560    2.8520    0.0690 C   0  0  0  0  0  0  0  0  0  0  0  0
   -1.7920    3.6530    0.2300 C   0  0  0  0  0  0  0  0  0  0  0  0
   -1.5740    4.9970    0.0940 O   0  0  0  0  0  0  0  0  0  0  0  0
   -2.6990    5.8550    0.2410 C   0  0  0  0  0  0  0  0  0  0  0  0
   -3.0100    3.0480    0.5080 C   0  0  0  0  0  0  0  0  0  0  0  0
   -3.0920    1.6550    0.6010 C   0  0  0  0  0  0  0  0  0  0  0  0
    0.5550    0.6740    0.0390 C   0  0  0  0  0  0  0  0  0  0  0  0
    1.3530    0.7720   -1.1120 C   0  0  0  0  0  0  0  0  0  0  0  0
    2.5280    0.0190   -1.2470 C   0  0  0  0  0  0  0  0  0  0  0  0
    2.9390   -0.8600   -0.2340 C   0  0  0  0  0  0  0  0  0  0  0  0
    2.1480   -0.9560    0.9180 C   0  0  0  0  0  0  0  0  0  0  0  0
    0.9850   -0.1920    1.0560 C   0  0  0  0  0  0  0  0  0  0  0  0
    4.2330   -1.6500   -0.3100 C   0  0  1  0  0  0  0  0  0  0  0  0
    4.3020   -2.4830   -1.5000 N   0  0  0  0  0  0  0  0  0  0  0  0
    5.4380   -0.6980   -0.2910 C   0  0  0  0  0  0  0  0  0  0  0  0
   -1.7540   -1.4670   -0.5730 C   0  0  0  0  0  0  0  0  0  0  0  0
   -1.8730   -2.8560   -0.4920 C   0  0  0  0  0  0  0  0  0  0  0  0
   -3.2560   -3.0820    2.6150 H   0  0  0  0  0  0  0  0  0  0  0  0
   -3.0170   -0.6460    2.4780 H   0  0  0  0  0  0  0  0  0  0  0  0
    0.2960    3.3440   -0.1260 H   0  0  0  0  0  0  0  0  0  0  0  0
   -2.3590    6.8830    0.0830 H   0  0  0  0  0  0  0  0  0  0  0  0
   -3.1130    5.7930    1.2520 H   0  0  0  0  0  0  0  0  0  0  0  0
   -3.4640    5.6410   -0.5130 H   0  0  0  0  0  0  0  0  0  0  0  0
   -3.9190    3.6230    0.6510 H   0  0  0  0  0  0  0  0  0  0  0  0
   -4.0640    1.2060    0.7980 H   0  0  0  0  0  0  0  0  0  0  0  0
    1.0590    1.4360   -1.9230 H   0  0  0  0  0  0  0  0  0  0  0  0
    3.1200    0.1390   -2.1510 H   0  0  0  0  0  0  0  0  0  0  0  0
    2.4330   -1.6250    1.7270 H   0  0  0  0  0  0  0  0  0  0  0  0
    0.4050   -0.2890    1.9720 H   0  0  0  0  0  0  0  0  0  0  0  0
    4.3110   -2.3080    0.5640 H   0  0  0  0  0  0  0  0  0  0  0  0
    4.0790   -2.0080   -2.3550 H   0  0  0  0  0  0  0  0  0  0  0  0
    6.3820   -1.2580   -0.2910 H   0  0  0  0  0  0  0  0  0  0  0  0
    5.4280   -0.0540    0.5910 H   0  0  0  0  0  0  0  0  0  0  0  0
    5.4550   -0.0560   -1.1820 H   0  0  0  0  0  0  0  0  0  0  0  0
   -1.3140   -1.0350   -1.4690 H   0  0  0  0  0  0  0  0  0  0  0  0
   -1.5140   -3.4700   -1.3160 H   0  0  0  0  0  0  0  0  0  0  0  0
    5.2810   -3.4640   -1.5160 C   0  0  0  0  0  0  0  0  0  0  0  0
    5.4690   -4.2180   -0.5670 O   0  0  0  0  0  0  0  0  0  0  0  0
    6.2180   -3.4770   -2.6830 C   0  0  0  0  0  0  0  0  0  0  0  0
    6.1450   -2.5500   -3.7300 C   0  0  0  0  0  0  0  0  0  0  0  0
    7.1330   -2.5190   -4.7180 C   0  0  0  0  0  0  0  0  0  0  0  0
    8.2180   -3.4090   -4.6920 C   0  0  0  0  0  0  0  0  0  0  0  0
    9.2580   -3.3470   -5.7400 C   0  0  0  0  0  0  0  0  0  0  0  0
   10.6370   -3.1620   -5.4620 C   0  0  0  0  0  0  0  0  0  0  0  0
   11.5450   -3.1680   -6.5440 C   0  0  0  0  0  0  0  0  0  0  0  0
   11.1260   -3.3270   -7.8690 C   0  0  0  0  0  0  0  0  0  0  0  0
   12.1310   -3.3160   -8.7960 O   0  0  0  0  0  0  0  0  0  0  0  0
   11.7590   -3.4980  -10.1580 C   0  0  0  0  0  0  0  0  0  0  0  0
    9.7710   -3.4750   -8.1370 C   0  0  0  0  0  0  0  0  0  0  0  0
    8.8530   -3.4870   -7.0850 C   0  0  0  0  0  0  0  0  0  0  0  0
   11.1570   -2.9390   -4.0930 C   0  0  0  0  0  0  0  0  0  0  0  0
   12.1270   -3.7880   -3.5360 C   0  0  0  0  0  0  0  0  0  0  0  0
   12.5980   -3.5930   -2.2310 C   0  0  0  0  0  0  0  0  0  0  0  0
   12.1090   -2.5420   -1.4400 C   0  0  0  0  0  0  0  0  0  0  0  0
   11.1430   -1.6920   -1.9940 C   0  0  0  0  0  0  0  0  0  0  0  0
   10.6860   -1.8800   -3.3010 C   0  0  0  0  0  0  0  0  0  0  0  0
   12.6390   -2.2470   -0.0500 C   0  0  1  0  0  0  0  0  0  0  0  0
   12.5150   -3.3880    0.8430 N   0  0  0  0  0  0  0  0  0  0  0  0
   14.1130   -1.8200   -0.1220 C   0  0  0  0  0  0  0  0  0  0  0  0
    8.2790   -4.3400   -3.6450 C   0  0  0  0  0  0  0  0  0  0  0  0
    7.2980   -4.3680   -2.6470 C   0  0  0  0  0  0  0  0  0  0  0  0
    5.3580   -1.8100   -3.7990 H   0  0  0  0  0  0  0  0  0  0  0  0
    7.0650   -1.7670   -5.5030 H   0  0  0  0  0  0  0  0  0  0  0  0
   12.6090   -3.0290   -6.3550 H   0  0  0  0  0  0  0  0  0  0  0  0
   12.6730   -3.4790  -10.7590 H   0  0  0  0  0  0  0  0  0  0  0  0
   11.1160   -2.6820  -10.5040 H   0  0  0  0  0  0  0  0  0  0  0  0
   11.2800   -4.4710  -10.3120 H   0  0  0  0  0  0  0  0  0  0  0  0
    9.3910   -3.5900   -9.1470 H   0  0  0  0  0  0  0  0  0  0  0  0
    7.7980   -3.6210   -7.3200 H   0  0  0  0  0  0  0  0  0  0  0  0
   12.5210   -4.6180   -4.1190 H   0  0  0  0  0  0  0  0  0  0  0  0
   13.3600   -4.2670   -1.8480 H   0  0  0  0  0  0  0  0  0  0  0  0
   10.7400   -0.8650   -1.4120 H   0  0  0  0  0  0  0  0  0  0  0  0
    9.9440   -1.1900   -3.6970 H   0  0  0  0  0  0  0  0  0  0  0  0
   12.0700   -1.4190    0.3900 H   0  0  0  0  0  0  0  0  0  0  0  0
   12.8450   -4.2580    0.4650 H   0  0  0  0  0  0  0  0  0  0  0  0
   14.4960   -1.5540    0.8700 H   0  0  0  0  0  0  0  0  0  0  0  0
   14.2450   -0.9530   -0.7770 H   0  0  0  0  0  0  0  0  0  0  0  0
   14.7470   -2.6310   -0.4990 H   0  0  0  0  0  0  0  0  0  0  0  0
    9.1120   -5.0370   -3.5780 H   0  0  0  0  0  0  0  0  0  0  0  0
    7.4060   -5.0680   -1.8200 H   0  0  0  0  0  0  0  0  0  0  0  0
   12.6840   -3.1360    2.1960 C   0  0  0  0  0  0  0  0  0  0  0  0
   12.1360   -2.1950    2.7600 O   0  0  0  0  0  0  0  0  0  0  0  0
   13.6940   -3.9640    2.9250 C   0  0  0  0  0  0  0  0  0  0  0  0
   14.4720   -4.9440    2.3000 C   0  0  0  0  0  0  0  0  0  0  0  0
   15.5040   -5.5800    2.9960 C   0  0  0  0  0  0  0  0  0  0  0  0
   15.7880   -5.2580    4.3320 C   0  0  0  0  0  0  0  0  0  0  0  0
   16.8950   -5.9310    5.0430 C   0  0  0  0  0  0  0  0  0  0  0  0
   17.9680   -5.2340    5.6590 C   0  0  0  0  0  0  0  0  0  0  0  0
   18.9420   -5.9840    6.3550 C   0  0  0  0  0  0  0  0  0  0  0  0
   18.8950   -7.3810    6.4320 C   0  0  0  0  0  0  0  0  0  0  0  0
   19.9130   -7.9500    7.1450 O   0  0  0  0  0  0  0  0  0  0  0  0
   19.9020   -9.3670    7.2720 C   0  0  0  0  0  0  0  0  0  0  0  0
   17.8630   -8.0590    5.7980 C   0  0  0  0  0  0  0  0  0  0  0  0
   16.8760   -7.3410    5.1170 C   0  0  0  0  0  0  0  0  0  0  0  0
   18.1240   -3.7630    5.5770 C   0  0  0  0  0  0  0  0  0  0  0  0
   18.2060   -2.9740    6.7350 C   0  0  0  0  0  0  0  0  0  0  0  0
   18.3290   -1.5800    6.6560 C   0  0  0  0  0  0  0  0  0  0  0  0
   18.3690   -0.9320    5.4130 C   0  0  0  0  0  0  0  0  0  0  0  0
   18.2940   -1.7170    4.2550 C   0  0  0  0  0  0  0  0  0  0  0  0
   18.1880   -3.1080    4.3370 C   0  0  0  0  0  0  0  0  0  0  0  0
   18.5590    0.5670    5.2770 C   0  0  1  0  0  0  0  0  0  0  0  0
   17.5330    1.3210    5.9800 N   0  0  0  0  0  0  0  0  0  0  0  0
   19.9390    0.9860    5.8050 C   0  0  0  0  0  0  0  0  0  0  0  0
   14.9970   -4.2800    4.9540 C   0  0  0  0  0  0  0  0  0  0  0  0
   13.9700   -3.6330    4.2580 C   0  0  0  0  0  0  0  0  0  0  0  0
   14.3360   -5.2190    1.2610 H   0  0  0  0  0  0  0  0  0  0  0  0
   16.1120   -6.3160    2.4720 H   0  0  0  0  0  0  0  0  0  0  0  0
   19.7720   -5.4710    6.8380 H   0  0  0  0  0  0  0  0  0  0  0  0
   20.7710   -9.6540    7.8720 H   0  0  0  0  0  0  0  0  0  0  0  0
   19.9970   -9.8540    6.2960 H   0  0  0  0  0  0  0  0  0  0  0  0
   19.0060   -9.7120    7.8000 H   0  0  0  0  0  0  0  0  0  0  0  0
   17.7860   -9.1400    5.8140 H   0  0  0  0  0  0  0  0  0  0  0  0
   16.0670   -7.8950    4.6440 H   0  0  0  0  0  0  0  0  0  0  0  0
   18.1650   -3.4430    7.7160 H   0  0  0  0  0  0  0  0  0  0  0  0
   18.4020   -1.0120    7.5800 H   0  0  0  0  0  0  0  0  0  0  0  0
   18.3240   -1.2510    3.2720 H   0  0  0  0  0  0  0  0  0  0  0  0
   18.1420   -3.6820    3.4140 H   0  0  0  0  0  0  0  0  0  0  0  0
   18.5060    0.8460    4.2170 H   0  0  0  0  0  0  0  0  0  0  0  0
   17.3520    1.0180    6.9210 H   0  0  0  0  0  0  0  0  0  0  0  0
   20.1080    2.0580    5.6620 H   0  0  0  0  0  0  0  0  0  0  0  0
   20.7440    0.4470    5.2900 H   0  0  0  0  0  0  0  0  0  0  0  0
   20.0320    0.7910    6.8800 H   0  0  0  0  0  0  0  0  0  0  0  0
   15.1940   -3.9870    5.9840 H   0  0  0  0  0  0  0  0  0  0  0  0
   13.4120   -2.8410    4.7550 H   0  0  0  0  0  0  0  0  0  0  0  0
   17.4500    2.6710    5.6820 C   0  0  0  0  0  0  0  0  0  0  0  0
   17.4630    3.0880    4.5270 O   0  0  0  0  0  0  0  0  0  0  0  0
   17.5160    3.6320    6.8260 C   0  0  0  0  0  0  0  0  0  0  0  0
   17.7030    3.2280    8.1530 C   0  0  0  0  0  0  0  0  0  0  0  0
   17.9120    4.1770    9.1580 C   0  0  0  0  0  0  0  0  0  0  0  0
   17.9390    5.5500    8.8680 C   0  0  0  0  0  0  0  0  0  0  0  0
   18.1750    6.5380    9.9410 C   0  0  0  0  0  0  0  0  0  0  0  0
   19.2310    7.4870    9.9100 C   0  0  0  0  0  0  0  0  0  0  0  0
   19.3260    8.4130   10.9740 C   0  0  0  0  0  0  0  0  0  0  0  0
   18.4310    8.4080   12.0500 C   0  0  0  0  0  0  0  0  0  0  0  0
   18.6560    9.3730   12.9960 O   0  0  0  0  0  0  0  0  0  0  0  0
   17.7610    9.4120   14.1020 C   0  0  0  0  0  0  0  0  0  0  0  0
   17.4170    7.4600   12.0850 C   0  0  0  0  0  0  0  0  0  0  0  0
   17.2930    6.5400   11.0430 C   0  0  0  0  0  0  0  0  0  0  0  0
   20.2420    7.5310    8.8260 C   0  0  0  0  0  0  0  0  0  0  0  0
   20.4400    8.6900    8.0580 C   0  0  0  0  0  0  0  0  0  0  0  0
   21.3830    8.7250    7.0180 C   0  0  0  0  0  0  0  0  0  0  0  0
   22.1600    7.5990    6.7180 C   0  0  0  0  0  0  0  0  0  0  0  0
   21.9570    6.4360    7.4760 C   0  0  0  0  0  0  0  0  0  0  0  0
   21.0260    6.4090    8.5200 C   0  0  0  0  0  0  0  0  0  0  0  0
   23.2730    7.6260    5.6910 C   0  0  1  0  0  0  0  0  0  0  0  0
   22.8200    7.9390    4.3380 N   0  0  0  0  0  0  0  0  0  0  0  0
   24.3810    8.5970    6.1220 C   0  0  0  0  0  0  0  0  0  0  0  0
   17.7420    5.9460    7.5370 C   0  0  0  0  0  0  0  0  0  0  0  0
   17.5450    5.0000    6.5260 C   0  0  0  0  0  0  0  0  0  0  0  0
   17.7340    2.1850    8.4440 H   0  0  0  0  0  0  0  0  0  0  0  0
   18.0850    3.8330   10.1760 H   0  0  0  0  0  0  0  0  0  0  0  0
   20.1280    9.1500   10.9760 H   0  0  0  0  0  0  0  0  0  0  0  0
   18.0650   10.2410   14.7490 H   0  0  0  0  0  0  0  0  0  0  0  0
   17.8220    8.4910   14.6920 H   0  0  0  0  0  0  0  0  0  0  0  0
   16.7340    9.6050   13.7760 H   0  0  0  0  0  0  0  0  0  0  0  0
   16.7010    7.4080   12.8980 H   0  0  0  0  0  0  0  0  0  0  0  0
   16.4800    5.8160   11.0860 H   0  0  0  0  0  0  0  0  0  0  0  0
   19.8550    9.5840    8.2640 H   0  0  0  0  0  0  0  0  0  0  0  0
   21.5160    9.6500    6.4630 H   0  0  0  0  0  0  0  0  0  0  0  0
   22.5380    5.5370    7.2740 H   0  0  0  0  0  0  0  0  0  0  0  0
   20.9150    5.4920    9.0960 H   0  0  0  0  0  0  0  0  0  0  0  0
   23.7150    6.6230    5.6400 H   0  0  0  0  0  0  0  0  0  0  0  0
   22.0170    8.5330    4.2010 H   0  0  0  0  0  0  0  0  0  0  0  0
   25.2260    8.5900    5.4250 H   0  0  0  0  0  0  0  0  0  0  0  0
   24.7710    8.3270    7.1090 H   0  0  0  0  0  0  0  0  0  0  0  0
   24.0180    9.6290    6.1640 H   0  0  0  0  0  0  0  0  0  0  0  0
   17.7720    7.0000    7.2670 H   0  0  0  0  0  0  0  0  0  0  0  0
   17.4510    5.3400    5.4960 H   0  0  0  0  0  0  0  0  0  0  0  0
   -2.3410   -6.7050    2.2380 C   0  0  0  0  0  0  0  0  0  0  0  0
   -2.7340   -5.3600    1.9650 O   0  0  0  0  0  0  0  0  0  0  0  0
   -2.5640   -7.3870    1.4120 H   0  0  0  0  0  0  0  0  0  0  0  0
   -2.8770   -7.0490    3.1260 H   0  0  0  0  0  0  0  0  0  0  0  0
   -1.2680   -6.7100    2.4570 H   0  0  0  0  0  0  0  0  0  0  0  0
   26.9750    6.3310    3.4360 C   0  0  0  0  0  0  0  0  0  0  0  0
   25.8130    6.8840    2.5900 C   0  0  0  0  0  0  0  0  0  0  0  0
   26.2730    8.1910    1.9450 C   0  0  0  0  0  0  0  0  0  0  0  0
   25.4040    5.8330    1.5540 C   0  0  0  0  0  0  0  0  0  0  0  0
   24.7470    7.0910    3.5420 O   0  0  0  0  0  0  0  0  0  0  0  0
   23.5900    7.7250    3.2340 C   0  0  0  0  0  0  0  0  0  0  0  0
   23.2650    8.1240    2.1240 O   0  0  0  0  0  0  0  0  0  0  0  0
   27.8570    6.1090    2.8270 H   0  0  0  0  0  0  0  0  0  0  0  0
   27.2630    7.0490    4.2120 H   0  0  0  0  0  0  0  0  0  0  0  0
   26.6780    5.4140    3.9640 H   0  0  0  0  0  0  0  0  0  0  0  0
   26.4880    8.9460    2.7040 H   0  0  0  0  0  0  0  0  0  0  0  0
   25.5130    8.6120    1.2810 H   0  0  0  0  0  0  0  0  0  0  0  0
   27.1790    8.0380    1.3420 H   0  0  0  0  0  0  0  0  0  0  0  0
   25.0070    4.9380    2.0480 H   0  0  0  0  0  0  0  0  0  0  0  0
   24.6060    6.2090    0.9030 H   0  0  0  0  0  0  0  0  0  0  0  0
   26.2460    5.5420    0.9270 H   0  0  0  0  0  0  0  0  0  0  0  0
  1178  1  0  0  0  0
  1  2  2  0  0  0  0
  1  3  1  0  0  0  0
  3  4  2  0  0  0  0
  4 26  1  0  0  0  0
  4  5  1  0  0  0  0
  5 27  1  0  0  0  0
  5  6  2  0  0  0  0
  6  7  1  0  0  0  0
  7 14  2  0  0  0  0
  7  8  1  0  0  0  0
  8  9  2  0  0  0  0
  9 10  1  0  0  0  0
 10 13  2  0  0  0  0
 10 11  1  0  0  0  0
 11 12  1  0  0  0  0
 12 30  1  0  0  0  0
 13 14  1  0  0  0  0
 13 32  1  0  0  0  0
 14 33  1  0  0  0  0
  8 15  1  0  0  0  0
 15 20  1  0  0  0  0
 15 16  2  0  0  0  0
 16 17  1  0  0  0  0
 17 18  2  0  0  0  0
 18 19  1  0  0  0  0
 19 20  2  0  0  0  0
 19 36  1  0  0  0  0
 20 37  1  0  0  0  0
 21 23  1  0  0  0  0
 18 21  1  0  0  0  0
 21 38  1  0  0  0  0
 21 22  1  0  0  0  0
 23 41  1  0  0  0  0
 24 25  2  0  0  0  0
  6 24  1  0  0  0  0
  3 25  1  0  0  0  0
  9 28  1  0  0  0  0
 12 29  1  0  0  0  0
 12 31  1  0  0  0  0
 16 34  1  0  0  0  0
 17 35  1  0  0  0  0
 22 39  1  0  0  0  0
 23 40  1  0  0  0  0
 23 42  1  0  0  0  0
 24 43  1  0  0  0  0
 25 44  1  0  0  0  0
 22 45  1  0  0  0  0
 45 46  2  0  0  0  0
 47 69  1  0  0  0  0
 45 47  1  0  0  0  0
 47 48  2  0  0  0  0
 49 50  2  0  0  0  0
 48 49  1  0  0  0  0
 50 68  1  0  0  0  0
 51 52  1  0  0  0  0
 50 51  1  0  0  0  0
 52 59  1  0  0  0  0
 53 72  1  0  0  0  0
 52 53  2  0  0  0  0
 53 54  1  0  0  0  0
 54 55  1  0  0  0  0
 55 56  1  0  0  0  0
 54 57  2  0  0  0  0
 57 58  1  0  0  0  0
 51 58  2  0  0  0  0
 59 60  2  0  0  0  0
 59 64  1  0  0  0  0
 60 61  1  0  0  0  0
 61 79  1  0  0  0  0
 61 62  2  0  0  0  0
 62 65  1  0  0  0  0
 62 63  1  0  0  0  0
 63 80  1  0  0  0  0
 63 64  2  0  0  0  0
 65 82  1  0  0  0  0
 65 66  1  0  0  0  0
 66 89  1  0  0  0  0
 65 67  1  0  0  0  0
 67 84  1  0  0  0  0
 68 87  1  0  0  0  0
 68 69  2  0  0  0  0
 69 88  1  0  0  0  0
 48 70  1  0  0  0  0
 49 71  1  0  0  0  0
 56 73  1  0  0  0  0
 56 74  1  0  0  0  0
 56 75  1  0  0  0  0
 57 76  1  0  0  0  0
 58 77  1  0  0  0  0
 60 78  1  0  0  0  0
 64 81  1  0  0  0  0
 66 83  1  0  0  0  0
 67 85  1  0  0  0  0
 67 86  1  0  0  0  0
 89 90  2  0  0  0  0
 89 91  1  0  0  0  0
 91113  1  0  0  0  0
 91 92  2  0  0  0  0
 92 93  1  0  0  0  0
 93 94  2  0  0  0  0
 94112  1  0  0  0  0
 94 95  1  0  0  0  0
 95102  2  0  0  0  0
 95 96  1  0  0  0  0
 96 97  2  0  0  0  0
 97 98  1  0  0  0  0
 97116  1  0  0  0  0
 98 99  1  0  0  0  0
 99100  1  0  0  0  0
100119  1  0  0  0  0
100117  1  0  0  0  0
101120  1  0  0  0  0
 98101  2  0  0  0  0
101102  1  0  0  0  0
 96103  1  0  0  0  0
103104  2  0  0  0  0
104122  1  0  0  0  0
104105  1  0  0  0  0
105123  1  0  0  0  0
105106  2  0  0  0  0
107108  2  0  0  0  0
106107  1  0  0  0  0
103108  1  0  0  0  0
109126  1  0  0  0  0
106109  1  0  0  0  0
109111  1  0  0  0  0
109110  1  0  0  0  0
110127  1  0  0  0  0
111130  1  0  0  0  0
112131  1  0  0  0  0
113132  1  0  0  0  0
112113  2  0  0  0  0
 92114  1  0  0  0  0
 93115  1  0  0  0  0
100118  1  0  0  0  0
102121  1  0  0  0  0
107124  1  0  0  0  0
108125  1  0  0  0  0
111128  1  0  0  0  0
111129  1  0  0  0  0
110133  1  0  0  0  0
133135  1  0  0  0  0
133134  2  0  0  0  0
135136  2  0  0  0  0
136158  1  0  0  0  0
136137  1  0  0  0  0
137159  1  0  0  0  0
137138  2  0  0  0  0
138139  1  0  0  0  0
139146  2  0  0  0  0
139140  1  0  0  0  0
140141  2  0  0  0  0
141160  1  0  0  0  0
141142  1  0  0  0  0
142145  2  0  0  0  0
142143  1  0  0  0  0
143144  1  0  0  0  0
144162  1  0  0  0  0
144161  1  0  0  0  0
145164  1  0  0  0  0
146165  1  0  0  0  0
145146  1  0  0  0  0
140147  1  0  0  0  0
148166  1  0  0  0  0
147148  2  0  0  0  0
148149  1  0  0  0  0
149150  2  0  0  0  0
150151  1  0  0  0  0
151152  2  0  0  0  0
147152  1  0  0  0  0
152169  1  0  0  0  0
153170  1  0  0  0  0
153155  1  0  0  0  0
150153  1  0  0  0  0
153154  1  0  0  0  0
155174  1  0  0  0  0
155173  1  0  0  0  0
138156  1  0  0  0  0
135157  1  0  0  0  0
156157  2  0  0  0  0
144163  1  0  0  0  0
149167  1  0  0  0  0
151168  1  0  0  0  0
154171  1  0  0  0  0
155172  1  0  0  0  0
156175  1  0  0  0  0
157176  1  0  0  0  0
177181  1  0  0  0  0
177180  1  0  0  0  0
177178  1  0  0  0  0
177179  1  0  0  0  0
182191  1  0  0  0  0
182190  1  0  0  0  0
182183  1  0  0  0  0
183186  1  0  0  0  0
183184  1  0  0  0  0
184192  1  0  0  0  0
185195  1  0  0  0  0
183185  1  0  0  0  0
186187  1  0  0  0  0
154187  1  0  0  0  0
187188  2  0  0  0  0
182189  1  0  0  0  0
184193  1  0  0  0  0
184194  1  0  0  0  0
185196  1  0  0  0  0
185197  1  0  0  0  0
M  END
> <atom.dprop.PartialCharge>
0.646960 -0.537840 -0.137510 -0.076830 -0.129940 0.000170 -0.079950 0.008030 -0.144120 0.129310 -0.324620 0.112440 -0.204340 -0.081890 -0.040460 -0.110100 -0.121830 -0.094180 -0.121830 -0.110100 0.152090 -0.570900 -0.110260 -0.129940 -0.076830 0.152420 0.143750 0.158440 0.046420 0.046420 0.046420 0.141700 0.140520 0.139360 0.134270 0.134270 0.139360 0.086910 0.311350 0.045270 0.045270 0.045270 0.143750 0.152420 0.676300 -0.613090 -0.144670 -0.092890 -0.124850 -0.009050 -0.076170 0.006680 -0.143900 0.128840 -0.324770 0.112540 -0.203520 -0.083590 -0.038910 -0.109380 -0.122640 -0.094190 -0.122640 -0.109380 0.152210 -0.573800 -0.110430 -0.124850 -0.092890 0.147630 0.142500 0.158120 0.046150 0.046150 0.046150 0.140930 0.139290 0.139860 0.133100 0.133100 0.139860 0.084160 0.310040 0.044830 0.044830 0.044830 0.142500 0.147630 0.676690 -0.606990 -0.144180 -0.091050 -0.124100 -0.012040 -0.074620 0.010940 -0.145820 0.125880 -0.324370 0.112860 -0.206670 -0.085590 -0.043930 -0.111650 -0.119450 -0.090300 -0.119450 -0.111650 0.150550 -0.571060 -0.110640 -0.124100 -0.091050 0.148200 0.142110 0.157790 0.045350 0.045350 0.045350 0.139480 0.138550 0.134540 0.138790 0.138790 0.134540 0.088380 0.315420 0.044370 0.044370 0.044370 0.142110 0.148200 0.678060 -0.611340 -0.139000 -0.087540 -0.124410 -0.015440 -0.067710 0.008930 -0.148190 0.123010 -0.327470 0.114100 -0.204440 -0.084580 -0.044720 -0.108750 -0.119180 -0.101380 -0.119180 -0.108750 0.146820 -0.536770 -0.096810 -0.124410 -0.087540 0.148790 0.139380 0.155190 0.044150 0.044150 0.044150 0.138210 0.140580 0.133660 0.134740 0.134740 0.133660 0.091500 0.317510 0.045190 0.045190 0.045190 0.139380 0.148790 0.123860 -0.430600 0.050520 0.050520 0.050520 -0.116190 0.190190 -0.116190 -0.116190 -0.445280 0.746630 -0.588270 0.051890 0.051890 0.051890 0.051890 0.051890 0.051890 0.051890 0.051890 0.051890

$$$$
