mop_tetramer.pdb
 OpenBabel09162417033D

197208  0  0  1  0  0  0  0  0999 V2000
   -3.3200   -5.0330    0.1230 C   0  0  0  0  0  0  0  0  0  0  0  0
   -4.2970   -5.3730   -0.6100 O   0  0  0  0  0  0  0  0  0  0  0  0
   -2.9470   -3.5940    0.0900 C   0  0  0  0  0  0  0  0  0  0  0  0
   -1.8500   -3.0440    0.9280 C   0  0  0  0  0  0  0  0  0  0  0  0
   -1.5160   -1.6240    0.9650 C   0  0  0  0  0  0  0  0  0  0  0  0
   -2.2080   -0.6450    0.1170 C   0  0  0  0  0  0  0  0  0  0  0  0
   -1.8820    0.7990    0.1050 C   0  0  0  0  0  0  0  0  0  0  0  0
   -0.5000    1.3340   -0.1680 C   0  0  0  0  0  0  0  0  0  0  0  0
   -0.2850    2.7910   -0.0460 C   0  0  0  0  0  0  0  0  0  0  0  0
   -1.3680    3.7100    0.2040 C   0  0  0  0  0  0  0  0  0  0  0  0
   -1.0200    5.0380    0.2080 O   0  0  0  0  0  0  0  0  0  0  0  0
   -2.0210    5.9870    0.5300 C   0  0  0  0  0  0  0  0  0  0  0  0
   -2.7120    3.2170    0.4040 C   0  0  0  0  0  0  0  0  0  0  0  0
   -2.9590    1.7850    0.3530 C   0  0  0  0  0  0  0  0  0  0  0  0
    0.6400    0.4830   -0.5450 C   0  0  0  0  0  0  0  0  0  0  0  0
    0.6000   -0.4090   -1.7190 C   0  0  0  0  0  0  0  0  0  0  0  0
    1.7200   -1.2760   -2.0520 C   0  0  0  0  0  0  0  0  0  0  0  0
    2.9220   -1.2630   -1.2320 C   0  0  0  0  0  0  0  0  0  0  0  0
    2.9920   -0.4100   -0.0420 C   0  0  0  0  0  0  0  0  0  0  0  0
    1.8540    0.4410    0.2910 C   0  0  0  0  0  0  0  0  0  0  0  0
    4.1130   -0.5630    0.9770 C   0  0  1  0  0  0  0  0  0  0  0  0
    4.2540   -1.9250    1.5190 N   0  0  0  0  0  0  0  0  0  0  0  0
    5.4440   -0.1710    0.3140 C   0  0  0  0  0  0  0  0  0  0  0  0
   -3.2440   -1.1860   -0.7790 C   0  0  0  0  0  0  0  0  0  0  0  0
   -3.5790   -2.5970   -0.8040 C   0  0  0  0  0  0  0  0  0  0  0  0
   -1.1810   -3.7320    1.4370 H   0  0  0  0  0  0  0  0  0  0  0  0
   -0.6430   -1.3290    1.5420 H   0  0  0  0  0  0  0  0  0  0  0  0
    0.7240    3.1750   -0.1410 H   0  0  0  0  0  0  0  0  0  0  0  0
   -1.5540    6.9770    0.5370 H   0  0  0  0  0  0  0  0  0  0  0  0
   -2.4370    5.8060    1.5250 H   0  0  0  0  0  0  0  0  0  0  0  0
   -2.8080    5.9950   -0.2310 H   0  0  0  0  0  0  0  0  0  0  0  0
   -3.5310    3.8590    0.6850 H   0  0  0  0  0  0  0  0  0  0  0  0
   -3.9460    1.4110    0.5980 H   0  0  0  0  0  0  0  0  0  0  0  0
   -0.3600   -0.6310   -2.1670 H   0  0  0  0  0  0  0  0  0  0  0  0
    1.5020   -2.1880   -2.5970 H   0  0  0  0  0  0  0  0  0  0  0  0
    3.5440   -2.1510   -1.2520 H   0  0  0  0  0  0  0  0  0  0  0  0
    1.8030    0.8520    1.2940 H   0  0  0  0  0  0  0  0  0  0  0  0
    3.9660    0.1500    1.8000 H   0  0  0  0  0  0  0  0  0  0  0  0
    4.2260   -2.5880    0.7560 H   0  0  0  0  0  0  0  0  0  0  0  0
    5.7430   -0.8850   -0.4630 H   0  0  0  0  0  0  0  0  0  0  0  0
    6.2530   -0.1270    1.0530 H   0  0  0  0  0  0  0  0  0  0  0  0
    5.3750    0.8170   -0.1560 H   0  0  0  0  0  0  0  0  0  0  0  0
   -3.6820   -0.5400   -1.5240 H   0  0  0  0  0  0  0  0  0  0  0  0
   -4.2580   -2.9710   -1.5640 H   0  0  0  0  0  0  0  0  0  0  0  0
    3.1800   -2.3160    2.3630 C   0  0  0  0  0  0  0  0  0  0  0  0
    2.6030   -3.3690    1.9850 O   0  0  0  0  0  0  0  0  0  0  0  0
    3.1020   -1.9760    3.7880 C   0  0  0  0  0  0  0  0  0  0  0  0
    4.2400   -1.3820    4.5170 C   0  0  0  0  0  0  0  0  0  0  0  0
    4.2230   -1.1820    5.9580 C   0  0  0  0  0  0  0  0  0  0  0  0
    3.0290   -1.4700    6.7680 C   0  0  0  0  0  0  0  0  0  0  0  0
    2.9900   -1.2350    8.2290 C   0  0  0  0  0  0  0  0  0  0  0  0
    3.3110    0.1020    8.8470 C   0  0  0  0  0  0  0  0  0  0  0  0
    3.4090    0.1790   10.3180 C   0  0  0  0  0  0  0  0  0  0  0  0
    3.0850   -0.9410   11.1690 C   0  0  0  0  0  0  0  0  0  0  0  0
    3.1550   -0.6900   12.5160 O   0  0  0  0  0  0  0  0  0  0  0  0
    2.8920   -1.7620   13.4040 C   0  0  0  0  0  0  0  0  0  0  0  0
    2.6950   -2.2080   10.5890 C   0  0  0  0  0  0  0  0  0  0  0  0
    2.6470   -2.3470    9.1430 C   0  0  0  0  0  0  0  0  0  0  0  0
    3.5430    1.3230    8.0530 C   0  0  0  0  0  0  0  0  0  0  0  0
    2.5550    1.8190    7.0760 C   0  0  0  0  0  0  0  0  0  0  0  0
    2.8280    2.9820    6.2450 C   0  0  0  0  0  0  0  0  0  0  0  0
    4.0930    3.6880    6.3720 C   0  0  0  0  0  0  0  0  0  0  0  0
    5.1090    3.2180    7.3160 C   0  0  0  0  0  0  0  0  0  0  0  0
    4.8280    2.0400    8.1350 C   0  0  0  0  0  0  0  0  0  0  0  0
    6.5180    3.7950    7.3180 C   0  0  1  0  0  0  0  0  0  0  0  0
    7.2030    3.7380    6.0160 N   0  0  0  0  0  0  0  0  0  0  0  0
    6.4500    5.2670    7.7530 C   0  0  0  0  0  0  0  0  0  0  0  0
    1.8540   -1.9720    6.0370 C   0  0  0  0  0  0  0  0  0  0  0  0
    1.8810   -2.1830    4.5990 C   0  0  0  0  0  0  0  0  0  0  0  0
    5.1070   -1.0540    3.9560 H   0  0  0  0  0  0  0  0  0  0  0  0
    5.0940   -0.7160    6.4060 H   0  0  0  0  0  0  0  0  0  0  0  0
    3.7370    1.1100   10.7660 H   0  0  0  0  0  0  0  0  0  0  0  0
    3.0120   -1.3880   14.4260 H   0  0  0  0  0  0  0  0  0  0  0  0
    3.6050   -2.5800   13.2610 H   0  0  0  0  0  0  0  0  0  0  0  0
    1.8610   -2.1140   13.2970 H   0  0  0  0  0  0  0  0  0  0  0  0
    2.5350   -3.0940   11.1850 H   0  0  0  0  0  0  0  0  0  0  0  0
    2.4670   -3.3260    8.7100 H   0  0  0  0  0  0  0  0  0  0  0  0
    1.7600    1.1540    6.7610 H   0  0  0  0  0  0  0  0  0  0  0  0
    2.3200    3.0400    5.2880 H   0  0  0  0  0  0  0  0  0  0  0  0
    4.4290    4.2570    5.5120 H   0  0  0  0  0  0  0  0  0  0  0  0
    5.6670    1.5410    8.6100 H   0  0  0  0  0  0  0  0  0  0  0  0
    7.1280    3.2820    8.0740 H   0  0  0  0  0  0  0  0  0  0  0  0
    6.5740    4.0760    5.2940 H   0  0  0  0  0  0  0  0  0  0  0  0
    5.9450    5.8940    7.0070 H   0  0  0  0  0  0  0  0  0  0  0  0
    7.4550    5.6780    7.9060 H   0  0  0  0  0  0  0  0  0  0  0  0
    5.9030    5.3740    8.6980 H   0  0  0  0  0  0  0  0  0  0  0  0
    0.9270   -2.1460    6.5650 H   0  0  0  0  0  0  0  0  0  0  0  0
    0.9950   -2.5360    4.0820 H   0  0  0  0  0  0  0  0  0  0  0  0
    7.5380    2.4280    5.5930 C   0  0  0  0  0  0  0  0  0  0  0  0
    7.0790    2.1350    4.4620 O   0  0  0  0  0  0  0  0  0  0  0  0
    8.7400    1.7120    6.0380 C   0  0  0  0  0  0  0  0  0  0  0  0
    9.8330    2.3900    6.7610 C   0  0  0  0  0  0  0  0  0  0  0  0
   11.1000    1.7360    7.0490 C   0  0  0  0  0  0  0  0  0  0  0  0
   11.3340    0.3180    6.7300 C   0  0  0  0  0  0  0  0  0  0  0  0
   12.6070   -0.3640    7.0510 C   0  0  0  0  0  0  0  0  0  0  0  0
   13.1800   -0.4010    8.4430 C   0  0  0  0  0  0  0  0  0  0  0  0
   14.5290   -0.9720    8.6260 C   0  0  0  0  0  0  0  0  0  0  0  0
   15.2530   -1.5920    7.5410 C   0  0  0  0  0  0  0  0  0  0  0  0
   16.4620   -2.1420    7.8880 O   0  0  0  0  0  0  0  0  0  0  0  0
   17.2430   -2.7180    6.8560 C   0  0  0  0  0  0  0  0  0  0  0  0
   14.6750   -1.6430    6.2160 C   0  0  0  0  0  0  0  0  0  0  0  0
   13.3760   -1.0320    5.9780 C   0  0  0  0  0  0  0  0  0  0  0  0
   12.4640    0.1160    9.6220 C   0  0  0  0  0  0  0  0  0  0  0  0
   11.1270   -0.3740   10.0020 C   0  0  0  0  0  0  0  0  0  0  0  0
   10.4020    0.1970   11.1270 C   0  0  0  0  0  0  0  0  0  0  0  0
   10.9960    1.2710   11.9090 C   0  0  0  0  0  0  0  0  0  0  0  0
   12.3140    1.7990   11.5510 C   0  0  0  0  0  0  0  0  0  0  0  0
   13.0230    1.2310   10.4080 C   0  0  0  0  0  0  0  0  0  0  0  0
   12.8670    3.0560   12.2060 C   0  0  1  0  0  0  0  0  0  0  0  0
   11.9990    4.2330   12.1100 N   0  0  0  0  0  0  0  0  0  0  0  0
   13.1130    2.7630   13.7000 C   0  0  0  0  0  0  0  0  0  0  0  0
   10.2090   -0.3990    6.1070 C   0  0  0  0  0  0  0  0  0  0  0  0
    8.9510    0.2650    5.8030 C   0  0  0  0  0  0  0  0  0  0  0  0
    9.6790    3.4060    7.1040 H   0  0  0  0  0  0  0  0  0  0  0  0
   11.8430    2.3080    7.5930 H   0  0  0  0  0  0  0  0  0  0  0  0
   14.9760   -0.9360    9.6120 H   0  0  0  0  0  0  0  0  0  0  0  0
   18.1770   -3.0750    7.3030 H   0  0  0  0  0  0  0  0  0  0  0  0
   17.5010   -1.9760    6.0940 H   0  0  0  0  0  0  0  0  0  0  0  0
   16.7350   -3.5800    6.4140 H   0  0  0  0  0  0  0  0  0  0  0  0
   15.1830   -2.0870    5.3740 H   0  0  0  0  0  0  0  0  0  0  0  0
   12.9820   -0.9970    4.9680 H   0  0  0  0  0  0  0  0  0  0  0  0
   10.5590   -0.9430    9.2750 H   0  0  0  0  0  0  0  0  0  0  0  0
    9.3180    0.1430   11.0990 H   0  0  0  0  0  0  0  0  0  0  0  0
   10.3170    1.9250   12.4440 H   0  0  0  0  0  0  0  0  0  0  0  0
   13.8320    1.8100    9.9710 H   0  0  0  0  0  0  0  0  0  0  0  0
   13.8530    3.2860   11.7820 H   0  0  0  0  0  0  0  0  0  0  0  0
   11.0590    3.9810   12.3950 H   0  0  0  0  0  0  0  0  0  0  0  0
   12.1780    2.6010   14.2450 H   0  0  0  0  0  0  0  0  0  0  0  0
   13.6390    3.5920   14.1790 H   0  0  0  0  0  0  0  0  0  0  0  0
   13.7290    1.8620   13.8280 H   0  0  0  0  0  0  0  0  0  0  0  0
   10.2920   -1.4570    5.8990 H   0  0  0  0  0  0  0  0  0  0  0  0
    8.1410   -0.2870    5.3400 H   0  0  0  0  0  0  0  0  0  0  0  0
   11.8320    4.7380   10.7880 C   0  0  0  0  0  0  0  0  0  0  0  0
   10.6310    4.8640   10.4610 O   0  0  0  0  0  0  0  0  0  0  0  0
   12.8000    5.6220   10.1320 C   0  0  0  0  0  0  0  0  0  0  0  0
   13.9030    6.2310   10.8820 C   0  0  0  0  0  0  0  0  0  0  0  0
   14.8550    7.1260   10.2620 C   0  0  0  0  0  0  0  0  0  0  0  0
   14.7040    7.6340    8.8950 C   0  0  0  0  0  0  0  0  0  0  0  0
   15.6210    8.6650    8.3390 C   0  0  0  0  0  0  0  0  0  0  0  0
   17.1250    8.6070    8.5000 C   0  0  0  0  0  0  0  0  0  0  0  0
   17.9160    9.7840    8.0920 C   0  0  0  0  0  0  0  0  0  0  0  0
   17.3190   10.9340    7.4600 C   0  0  0  0  0  0  0  0  0  0  0  0
   18.2040   11.9270    7.1140 O   0  0  0  0  0  0  0  0  0  0  0  0
   17.6910   13.0780    6.4600 C   0  0  0  0  0  0  0  0  0  0  0  0
   15.8890   10.9840    7.2460 C   0  0  0  0  0  0  0  0  0  0  0  0
   15.0580    9.8740    7.6880 C   0  0  0  0  0  0  0  0  0  0  0  0
   17.8410    7.4520    9.0760 C   0  0  0  0  0  0  0  0  0  0  0  0
   17.6520    6.0780    8.5770 C   0  0  0  0  0  0  0  0  0  0  0  0
   18.2630    4.9390    9.2440 C   0  0  0  0  0  0  0  0  0  0  0  0
   19.0810    5.1380   10.4310 C   0  0  0  0  0  0  0  0  0  0  0  0
   19.3160    6.4880   10.9440 C   0  0  0  0  0  0  0  0  0  0  0  0
   18.6760    7.6200   10.2820 C   0  0  0  0  0  0  0  0  0  0  0  0
   20.1140    6.7440   12.2070 C   0  0  1  0  0  0  0  0  0  0  0  0
   19.5740    6.1540   13.4190 N   0  0  0  0  0  0  0  0  0  0  0  0
   21.5440    6.2110   12.0190 C   0  0  0  0  0  0  0  0  0  0  0  0
   13.6420    6.9860    8.1050 C   0  0  0  0  0  0  0  0  0  0  0  0
   12.7520    5.9870    8.6940 C   0  0  0  0  0  0  0  0  0  0  0  0
   14.0310    5.9600   11.9230 H   0  0  0  0  0  0  0  0  0  0  0  0
   15.7970    7.2390   10.7710 H   0  0  0  0  0  0  0  0  0  0  0  0
   18.9870    9.7700    8.2560 H   0  0  0  0  0  0  0  0  0  0  0  0
   18.5280   13.7390    6.2260 H   0  0  0  0  0  0  0  0  0  0  0  0
   17.0040   13.6220    7.1130 H   0  0  0  0  0  0  0  0  0  0  0  0
   17.2030   12.8060    5.5190 H   0  0  0  0  0  0  0  0  0  0  0  0
   15.3930   11.8600    6.8540 H   0  0  0  0  0  0  0  0  0  0  0  0
   13.9790    9.9930    7.6820 H   0  0  0  0  0  0  0  0  0  0  0  0
   16.8240    5.8830    7.9020 H   0  0  0  0  0  0  0  0  0  0  0  0
   17.8050    3.9660    9.0970 H   0  0  0  0  0  0  0  0  0  0  0  0
   19.2250    4.2970   11.1000 H   0  0  0  0  0  0  0  0  0  0  0  0
   18.5840    8.5450   10.8440 H   0  0  0  0  0  0  0  0  0  0  0  0
   20.2280    7.8280   12.3530 H   0  0  0  0  0  0  0  0  0  0  0  0
   19.4070    5.1560   13.3470 H   0  0  0  0  0  0  0  0  0  0  0  0
   21.5680    5.1220   11.8940 H   0  0  0  0  0  0  0  0  0  0  0  0
   22.1700    6.4590   12.8840 H   0  0  0  0  0  0  0  0  0  0  0  0
   22.0130    6.6580   11.1350 H   0  0  0  0  0  0  0  0  0  0  0  0
   13.5630    7.1800    7.0450 H   0  0  0  0  0  0  0  0  0  0  0  0
   12.0110    5.4850    8.0810 H   0  0  0  0  0  0  0  0  0  0  0  0
   -3.0340   -7.0780    1.2390 C   0  0  0  0  0  0  0  0  0  0  0  0
   -2.5470   -5.7660    1.0030 O   0  0  0  0  0  0  0  0  0  0  0  0
   -4.0290   -7.0470    1.6970 H   0  0  0  0  0  0  0  0  0  0  0  0
   -2.3590   -7.5670    1.9480 H   0  0  0  0  0  0  0  0  0  0  0  0
   -3.0440   -7.6770    0.3220 H   0  0  0  0  0  0  0  0  0  0  0  0
   17.2300   10.1940   14.1730 C   0  0  0  0  0  0  0  0  0  0  0  0
   16.9430    8.6810   14.2020 C   0  0  0  0  0  0  0  0  0  0  0  0
   16.3630    8.3390   15.5840 C   0  0  0  0  0  0  0  0  0  0  0  0
   15.9130    8.4150   13.1090 C   0  0  0  0  0  0  0  0  0  0  0  0
   18.2200    8.0740   13.9070 O   0  0  0  0  0  0  0  0  0  0  0  0
   18.3700    6.7040   13.9350 C   0  0  0  0  0  0  0  0  0  0  0  0
   17.6870    5.7880   14.4290 O   0  0  0  0  0  0  0  0  0  0  0  0
   16.3260   10.7870   14.3510 H   0  0  0  0  0  0  0  0  0  0  0  0
   17.9740   10.4640   14.9290 H   0  0  0  0  0  0  0  0  0  0  0  0
   17.6470   10.4930   13.2030 H   0  0  0  0  0  0  0  0  0  0  0  0
   17.1150    8.4500   16.3640 H   0  0  0  0  0  0  0  0  0  0  0  0
   15.9830    7.3130   15.6280 H   0  0  0  0  0  0  0  0  0  0  0  0
   15.5090    8.9870   15.8170 H   0  0  0  0  0  0  0  0  0  0  0  0
   16.3060    8.7450   12.1430 H   0  0  0  0  0  0  0  0  0  0  0  0
   15.6830    7.3500   13.0420 H   0  0  0  0  0  0  0  0  0  0  0  0
   14.9740    8.9500   13.2890 H   0  0  0  0  0  0  0  0  0  0  0  0
  1178  1  0  0  0  0
  2  1  2  0  0  0  0
  3  1  1  0  0  0  0
  3  4  1  0  0  0  0
  4  5  2  0  0  0  0
  4 26  1  0  0  0  0
  5 27  1  0  0  0  0
  6  5  1  0  0  0  0
  7  6  1  0  0  0  0
  7 14  1  0  0  0  0
  8  9  1  0  0  0  0
  8  7  2  0  0  0  0
  9 10  2  0  0  0  0
 10 11  1  0  0  0  0
 10 13  1  0  0  0  0
 11 12  1  0  0  0  0
 12 29  1  0  0  0  0
 12 30  1  0  0  0  0
 13 32  1  0  0  0  0
 14 13  2  0  0  0  0
 14 33  1  0  0  0  0
 15  8  1  0  0  0  0
 15 20  1  0  0  0  0
 16 15  2  0  0  0  0
 17 16  1  0  0  0  0
 17 18  2  0  0  0  0
 18 19  1  0  0  0  0
 19 20  2  0  0  0  0
 19 21  1  0  0  0  0
 20 37  1  0  0  0  0
 21 22  1  0  0  0  0
 21 38  1  1  0  0  0
 22 45  1  0  0  0  0
 23 21  1  0  0  0  0
 23 41  1  0  0  0  0
 24  6  2  0  0  0  0
 25 24  1  0  0  0  0
 25  3  2  0  0  0  0
 28  9  1  0  0  0  0
 31 12  1  0  0  0  0
 34 16  1  0  0  0  0
 35 17  1  0  0  0  0
 36 18  1  0  0  0  0
 39 22  1  0  0  0  0
 40 23  1  0  0  0  0
 42 23  1  0  0  0  0
 43 24  1  0  0  0  0
 44 25  1  0  0  0  0
 45 47  1  0  0  0  0
 46 45  2  0  0  0  0
 47 48  2  0  0  0  0
 47 69  1  0  0  0  0
 48 49  1  0  0  0  0
 49 71  1  0  0  0  0
 49 50  2  0  0  0  0
 50 51  1  0  0  0  0
 51 52  2  0  0  0  0
 51 58  1  0  0  0  0
 52 53  1  0  0  0  0
 53 72  1  0  0  0  0
 53 54  2  0  0  0  0
 54 55  1  0  0  0  0
 55 56  1  0  0  0  0
 56 73  1  0  0  0  0
 57 54  1  0  0  0  0
 57 76  1  0  0  0  0
 58 57  2  0  0  0  0
 59 64  1  0  0  0  0
 59 52  1  0  0  0  0
 60 59  2  0  0  0  0
 61 62  2  0  0  0  0
 61 60  1  0  0  0  0
 62 63  1  0  0  0  0
 63 65  1  0  0  0  0
 63 64  2  0  0  0  0
 64 81  1  0  0  0  0
 65 67  1  0  0  0  0
 65 82  1  1  0  0  0
 66 65  1  0  0  0  0
 67 85  1  0  0  0  0
 67 86  1  0  0  0  0
 68 87  1  0  0  0  0
 68 50  1  0  0  0  0
 69 68  2  0  0  0  0
 70 48  1  0  0  0  0
 74 56  1  0  0  0  0
 75 56  1  0  0  0  0
 77 58  1  0  0  0  0
 78 60  1  0  0  0  0
 79 61  1  0  0  0  0
 80 62  1  0  0  0  0
 83 66  1  0  0  0  0
 84 67  1  0  0  0  0
 88 69  1  0  0  0  0
 89 66  1  0  0  0  0
 89 91  1  0  0  0  0
 90 89  2  0  0  0  0
 91 92  1  0  0  0  0
 92 93  2  0  0  0  0
 92114  1  0  0  0  0
 93115  1  0  0  0  0
 94 93  1  0  0  0  0
 94 95  1  0  0  0  0
 95 96  1  0  0  0  0
 96 97  2  0  0  0  0
 96103  1  0  0  0  0
 97116  1  0  0  0  0
 98 99  1  0  0  0  0
 98 97  1  0  0  0  0
100117  1  0  0  0  0
100 99  1  0  0  0  0
101 98  2  0  0  0  0
102101  1  0  0  0  0
102 95  2  0  0  0  0
103104  2  0  0  0  0
103108  1  0  0  0  0
104105  1  0  0  0  0
105106  2  0  0  0  0
106124  1  0  0  0  0
107106  1  0  0  0  0
107109  1  0  0  0  0
108107  2  0  0  0  0
109126  1  6  0  0  0
109111  1  0  0  0  0
110109  1  0  0  0  0
110127  1  0  0  0  0
111130  1  0  0  0  0
111129  1  0  0  0  0
111128  1  0  0  0  0
112 94  2  0  0  0  0
113 91  2  0  0  0  0
113112  1  0  0  0  0
118100  1  0  0  0  0
119100  1  0  0  0  0
120101  1  0  0  0  0
121102  1  0  0  0  0
122104  1  0  0  0  0
123105  1  0  0  0  0
125108  1  0  0  0  0
131112  1  0  0  0  0
132113  1  0  0  0  0
133110  1  0  0  0  0
134133  2  0  0  0  0
135133  1  0  0  0  0
135136  1  0  0  0  0
136158  1  0  0  0  0
137159  1  0  0  0  0
137136  2  0  0  0  0
138137  1  0  0  0  0
139140  1  0  0  0  0
139138  1  0  0  0  0
140147  1  0  0  0  0
141160  1  0  0  0  0
141140  2  0  0  0  0
142141  1  0  0  0  0
143142  1  0  0  0  0
144162  1  0  0  0  0
144143  1  0  0  0  0
145142  2  0  0  0  0
145146  1  0  0  0  0
146139  2  0  0  0  0
147152  1  0  0  0  0
148147  2  0  0  0  0
148149  1  0  0  0  0
149150  2  0  0  0  0
150151  1  0  0  0  0
150168  1  0  0  0  0
151153  1  0  0  0  0
152169  1  0  0  0  0
152151  2  0  0  0  0
153170  1  1  0  0  0
153154  1  0  0  0  0
154187  1  0  0  0  0
155153  1  0  0  0  0
155173  1  0  0  0  0
156157  1  0  0  0  0
156138  2  0  0  0  0
157135  2  0  0  0  0
161144  1  0  0  0  0
163144  1  0  0  0  0
164145  1  0  0  0  0
165146  1  0  0  0  0
166148  1  0  0  0  0
167149  1  0  0  0  0
171154  1  0  0  0  0
172155  1  0  0  0  0
174155  1  0  0  0  0
175156  1  0  0  0  0
176157  1  0  0  0  0
177179  1  0  0  0  0
177180  1  0  0  0  0
178177  1  0  0  0  0
181177  1  0  0  0  0
182183  1  0  0  0  0
182189  1  0  0  0  0
182190  1  0  0  0  0
183184  1  0  0  0  0
184193  1  0  0  0  0
184194  1  0  0  0  0
184192  1  0  0  0  0
185197  1  0  0  0  0
185183  1  0  0  0  0
186187  1  0  0  0  0
186183  1  0  0  0  0
187188  2  0  0  0  0
191182  1  0  0  0  0
195185  1  0  0  0  0
196185  1  0  0  0  0
M  END
