mom_octamer.pdb
  -OEChem-01202618043D

373396  0     1  0  0  0  0  0999 V2000
   -2.6180    5.4580    0.8970 C   0  0  0  0  0  0  0  0  0  0  0  0
   -1.4870    4.6620    0.5720 O   0  0  0  0  0  0  0  0  0  0  0  0
   -1.6950    3.3150    0.4530 C   0  0  0  0  0  0  0  0  0  0  0  0
   -2.9070    2.6550    0.6220 C   0  0  0  0  0  0  0  0  0  0  0  0
   -2.9650    1.2660    0.4900 C   0  0  0  0  0  0  0  0  0  0  0  0
   -1.8220    0.5060    0.1700 C   0  0  0  0  0  0  0  0  0  0  0  0
   -1.9490   -0.9670    0.1170 C   0  0  0  0  0  0  0  0  0  0  0  0
   -2.8820   -1.5910   -0.7270 C   0  0  0  0  0  0  0  0  0  0  0  0
   -2.9960   -2.9890   -0.7630 C   0  0  0  0  0  0  0  0  0  0  0  0
   -4.0930   -3.5780   -1.5870 C   0  0  0  0  0  0  0  0  0  0  0  0
   -4.8190   -2.9250   -2.3060 O   0  0  0  0  0  0  0  0  0  0  0  0
   -2.1420   -3.7770    0.0190 C   0  0  0  0  0  0  0  0  0  0  0  0
   -1.2180   -3.1740    0.8680 C   0  0  0  0  0  0  0  0  0  0  0  0
   -1.1370   -1.7830    0.9240 C   0  0  0  0  0  0  0  0  0  0  0  0
   -0.5890    1.1840   -0.0520 C   0  0  0  0  0  0  0  0  0  0  0  0
    0.6410    0.4750   -0.4820 C   0  0  0  0  0  0  0  0  0  0  0  0
    1.8450    0.5630    0.2460 C   0  0  0  0  0  0  0  0  0  0  0  0
    2.9650   -0.2350   -0.0650 C   0  0  0  0  0  0  0  0  0  0  0  0
    4.2150   -0.1570    0.7950 C   0  0  1  0  0  0  0  0  0  0  0  0
    4.4520   -1.4590    1.5690 C   0  0  0  0  0  0  0  0  0  0  0  0
    5.4580    0.3000    0.1550 N   0  0  0  0  0  0  0  0  0  0  0  0
    2.8310   -1.1610   -1.1050 C   0  0  0  0  0  0  0  0  0  0  0  0
    1.6870   -1.1940   -1.8990 C   0  0  0  0  0  0  0  0  0  0  0  0
    0.6130   -0.3630   -1.6060 C   0  0  0  0  0  0  0  0  0  0  0  0
   -0.5530    2.5800    0.1210 C   0  0  0  0  0  0  0  0  0  0  0  0
   -3.0380    5.1680    1.8650 H   0  0  0  0  0  0  0  0  0  0  0  0
   -3.3720    5.4090    0.1040 H   0  0  0  0  0  0  0  0  0  0  0  0
   -2.2850    6.4970    0.9760 H   0  0  0  0  0  0  0  0  0  0  0  0
   -3.8250    3.1830    0.8610 H   0  0  0  0  0  0  0  0  0  0  0  0
   -3.9190    0.7640    0.6490 H   0  0  0  0  0  0  0  0  0  0  0  0
   -3.5300   -0.9860   -1.3610 H   0  0  0  0  0  0  0  0  0  0  0  0
   -2.1990   -4.8620   -0.0150 H   0  0  0  0  0  0  0  0  0  0  0  0
   -0.5630   -3.7760    1.4940 H   0  0  0  0  0  0  0  0  0  0  0  0
   -0.4100   -1.3280    1.5960 H   0  0  0  0  0  0  0  0  0  0  0  0
    1.8970    1.2340    1.1020 H   0  0  0  0  0  0  0  0  0  0  0  0
    4.0300    0.6160    1.5530 H   0  0  0  0  0  0  0  0  0  0  0  0
    5.2960   -1.3440    2.2570 H   0  0  0  0  0  0  0  0  0  0  0  0
    3.5680   -1.7250    2.1580 H   0  0  0  0  0  0  0  0  0  0  0  0
    4.6800   -2.3030    0.9090 H   0  0  0  0  0  0  0  0  0  0  0  0
    6.0710    0.7470    0.8160 H   0  0  0  0  0  0  0  0  0  0  0  0
    3.6250   -1.8680   -1.3290 H   0  0  0  0  0  0  0  0  0  0  0  0
    1.6310   -1.8870   -2.7330 H   0  0  0  0  0  0  0  0  0  0  0  0
   -0.2760   -0.4140   -2.2320 H   0  0  0  0  0  0  0  0  0  0  0  0
    0.3840    3.1140   -0.0260 H   0  0  0  0  0  0  0  0  0  0  0  0
   11.2270   -6.4870   -6.0260 C   0  0  0  0  0  0  0  0  0  0  0  0
   11.1820   -6.6850   -4.6160 O   0  0  0  0  0  0  0  0  0  0  0  0
   10.6680   -5.6570   -3.8730 C   0  0  0  0  0  0  0  0  0  0  0  0
   10.1990   -4.4500   -4.3800 C   0  0  0  0  0  0  0  0  0  0  0  0
    9.7250   -3.4570   -3.5170 C   0  0  0  0  0  0  0  0  0  0  0  0
    9.6960   -3.6400   -2.1230 C   0  0  0  0  0  0  0  0  0  0  0  0
    9.2250   -2.5170   -1.2690 C   0  0  0  0  0  0  0  0  0  0  0  0
    7.9510   -1.9460   -1.4400 C   0  0  0  0  0  0  0  0  0  0  0  0
    7.4800   -0.9060   -0.6080 C   0  0  0  0  0  0  0  0  0  0  0  0
    6.0800   -0.4330   -0.8410 C   0  0  0  0  0  0  0  0  0  0  0  0
    5.5320   -0.7550   -1.8890 O   0  0  0  0  0  0  0  0  0  0  0  0
    8.3010   -0.4290    0.4160 C   0  0  0  0  0  0  0  0  0  0  0  0
    9.5710   -0.9780    0.5960 C   0  0  0  0  0  0  0  0  0  0  0  0
   10.0290   -1.9960   -0.2440 C   0  0  0  0  0  0  0  0  0  0  0  0
   10.1390   -4.8920   -1.6050 C   0  0  0  0  0  0  0  0  0  0  0  0
   10.0750   -5.2060   -0.1640 C   0  0  0  0  0  0  0  0  0  0  0  0
   11.2320   -5.5330    0.5720 C   0  0  0  0  0  0  0  0  0  0  0  0
   11.1930   -5.6850    1.9730 C   0  0  0  0  0  0  0  0  0  0  0  0
   12.4670   -5.9460    2.7550 C   0  0  1  0  0  0  0  0  0  0  0  0
   12.8630   -4.7510    3.6300 C   0  0  0  0  0  0  0  0  0  0  0  0
   12.5640   -7.1910    3.5310 N   0  0  0  0  0  0  0  0  0  0  0  0
    9.9660   -5.4710    2.6120 C   0  0  0  0  0  0  0  0  0  0  0  0
    8.8000   -5.2260    1.8960 C   0  0  0  0  0  0  0  0  0  0  0  0
    8.8520   -5.1150    0.5150 C   0  0  0  0  0  0  0  0  0  0  0  0
   10.6280   -5.8740   -2.4950 C   0  0  0  0  0  0  0  0  0  0  0  0
   11.8500   -5.6250   -6.2880 H   0  0  0  0  0  0  0  0  0  0  0  0
   10.2180   -6.3850   -6.4390 H   0  0  0  0  0  0  0  0  0  0  0  0
   11.6860   -7.3720   -6.4760 H   0  0  0  0  0  0  0  0  0  0  0  0
   10.1910   -4.2420   -5.4440 H   0  0  0  0  0  0  0  0  0  0  0  0
    9.3830   -2.5170   -3.9450 H   0  0  0  0  0  0  0  0  0  0  0  0
    7.2910   -2.3380   -2.2150 H   0  0  0  0  0  0  0  0  0  0  0  0
    7.9960    0.3630    1.0890 H   0  0  0  0  0  0  0  0  0  0  0  0
   10.2080   -0.6250    1.4030 H   0  0  0  0  0  0  0  0  0  0  0  0
   11.0220   -2.4050   -0.0690 H   0  0  0  0  0  0  0  0  0  0  0  0
   12.1800   -5.6240    0.0430 H   0  0  0  0  0  0  0  0  0  0  0  0
   13.2750   -6.0570    2.0200 H   0  0  0  0  0  0  0  0  0  0  0  0
   13.8140   -4.9540    4.1370 H   0  0  0  0  0  0  0  0  0  0  0  0
   12.9920   -3.8480    3.0230 H   0  0  0  0  0  0  0  0  0  0  0  0
   12.1200   -4.5370    4.4060 H   0  0  0  0  0  0  0  0  0  0  0  0
   13.5270   -7.4410    3.6760 H   0  0  0  0  0  0  0  0  0  0  0  0
    9.8920   -5.5060    3.6940 H   0  0  0  0  0  0  0  0  0  0  0  0
    7.8580   -5.1030    2.4200 H   0  0  0  0  0  0  0  0  0  0  0  0
    7.9330   -4.9060   -0.0270 H   0  0  0  0  0  0  0  0  0  0  0  0
   10.9700   -6.8330   -2.1060 H   0  0  0  0  0  0  0  0  0  0  0  0
    7.2960   -8.3510   12.9040 C   0  0  0  0  0  0  0  0  0  0  0  0
    8.4430   -7.5140   12.8110 O   0  0  0  0  0  0  0  0  0  0  0  0
    9.2050   -7.6370   11.6820 C   0  0  0  0  0  0  0  0  0  0  0  0
    8.9410   -8.4830   10.6100 C   0  0  0  0  0  0  0  0  0  0  0  0
    9.8250   -8.5380    9.5300 C   0  0  0  0  0  0  0  0  0  0  0  0
   10.9840   -7.7390    9.4820 C   0  0  0  0  0  0  0  0  0  0  0  0
   11.8990   -7.8990    8.3250 C   0  0  0  0  0  0  0  0  0  0  0  0
   11.4400   -7.7160    7.0110 C   0  0  0  0  0  0  0  0  0  0  0  0
   12.2990   -7.8300    5.8990 C   0  0  0  0  0  0  0  0  0  0  0  0
   11.7050   -7.5120    4.5660 C   0  0  0  0  0  0  0  0  0  0  0  0
   10.4830   -7.5120    4.4770 O   0  0  0  0  0  0  0  0  0  0  0  0
   13.6430   -8.1490    6.1030 C   0  0  0  0  0  0  0  0  0  0  0  0
   14.1150   -8.3440    7.4020 C   0  0  0  0  0  0  0  0  0  0  0  0
   13.2520   -8.2260    8.4960 C   0  0  0  0  0  0  0  0  0  0  0  0
   11.2270   -6.8310   10.5530 C   0  0  0  0  0  0  0  0  0  0  0  0
   12.3570   -5.8780   10.5340 C   0  0  0  0  0  0  0  0  0  0  0  0
   13.3460   -5.8690   11.5390 C   0  0  0  0  0  0  0  0  0  0  0  0
   14.4930   -5.0570   11.4400 C   0  0  0  0  0  0  0  0  0  0  0  0
   15.5790   -5.1390   12.5010 C   0  0  1  0  0  0  0  0  0  0  0  0
   16.8680   -5.7480   11.9400 C   0  0  0  0  0  0  0  0  0  0  0  0
   15.8840   -3.9210   13.2740 N   0  0  0  0  0  0  0  0  0  0  0  0
   14.6380   -4.2840   10.2780 C   0  0  0  0  0  0  0  0  0  0  0  0
   13.6420   -4.2260    9.3070 C   0  0  0  0  0  0  0  0  0  0  0  0
   12.4980   -4.9980    9.4500 C   0  0  0  0  0  0  0  0  0  0  0  0
   10.3350   -6.8150   11.6440 C   0  0  0  0  0  0  0  0  0  0  0  0
    7.5720   -9.4110   12.8710 H   0  0  0  0  0  0  0  0  0  0  0  0
    6.5690   -8.1080   12.1220 H   0  0  0  0  0  0  0  0  0  0  0  0
    6.8210   -8.1570   13.8690 H   0  0  0  0  0  0  0  0  0  0  0  0
    8.0650   -9.1210   10.5790 H   0  0  0  0  0  0  0  0  0  0  0  0
    9.6090   -9.2320    8.7190 H   0  0  0  0  0  0  0  0  0  0  0  0
   10.3970   -7.4450    6.8460 H   0  0  0  0  0  0  0  0  0  0  0  0
   14.3460   -8.2550    5.2860 H   0  0  0  0  0  0  0  0  0  0  0  0
   15.1640   -8.5760    7.5640 H   0  0  0  0  0  0  0  0  0  0  0  0
   13.6470   -8.3760    9.4980 H   0  0  0  0  0  0  0  0  0  0  0  0
   13.2450   -6.5490   12.3840 H   0  0  0  0  0  0  0  0  0  0  0  0
   15.2290   -5.8410   13.2720 H   0  0  0  0  0  0  0  0  0  0  0  0
   17.6210   -5.8700   12.7280 H   0  0  0  0  0  0  0  0  0  0  0  0
   16.6780   -6.7350   11.5040 H   0  0  0  0  0  0  0  0  0  0  0  0
   17.3080   -5.1090   11.1680 H   0  0  0  0  0  0  0  0  0  0  0  0
   16.2830   -4.1490   14.1690 H   0  0  0  0  0  0  0  0  0  0  0  0
   15.5370   -3.6980   10.1070 H   0  0  0  0  0  0  0  0  0  0  0  0
   13.7710   -3.5990    8.4300 H   0  0  0  0  0  0  0  0  0  0  0  0
   11.7350   -4.9570    8.6770 H   0  0  0  0  0  0  0  0  0  0  0  0
   10.5120   -6.1310   12.4740 H   0  0  0  0  0  0  0  0  0  0  0  0
   21.5850    4.1890    8.9040 C   0  0  0  0  0  0  0  0  0  0  0  0
   22.2310    2.9940    9.3340 O   0  0  0  0  0  0  0  0  0  0  0  0
   21.4960    2.1350   10.1050 C   0  0  0  0  0  0  0  0  0  0  0  0
   20.1670    2.3140   10.4730 C   0  0  0  0  0  0  0  0  0  0  0  0
   19.5400    1.3860   11.3110 C   0  0  0  0  0  0  0  0  0  0  0  0
   20.2130    0.2420   11.7860 C   0  0  0  0  0  0  0  0  0  0  0  0
   19.4980   -0.6620   12.7250 C   0  0  0  0  0  0  0  0  0  0  0  0
   18.2680   -1.2420   12.3760 C   0  0  0  0  0  0  0  0  0  0  0  0
   17.5910   -2.1350   13.2340 C   0  0  0  0  0  0  0  0  0  0  0  0
   16.3330   -2.7450   12.7000 C   0  0  0  0  0  0  0  0  0  0  0  0
   15.7940   -2.1910   11.7490 O   0  0  0  0  0  0  0  0  0  0  0  0
   18.1610   -2.4550   14.4710 C   0  0  0  0  0  0  0  0  0  0  0  0
   19.3830   -1.8870   14.8370 C   0  0  0  0  0  0  0  0  0  0  0  0
   20.0320   -0.9930   13.9800 C   0  0  0  0  0  0  0  0  0  0  0  0
   21.5570    0.0210   11.3590 C   0  0  0  0  0  0  0  0  0  0  0  0
   22.3040   -1.2090   11.7120 C   0  0  0  0  0  0  0  0  0  0  0  0
   23.5310   -1.1730   12.4100 C   0  0  0  0  0  0  0  0  0  0  0  0
   24.1520   -2.3500   12.8830 C   0  0  0  0  0  0  0  0  0  0  0  0
   25.4270   -2.2730   13.7100 C   0  0  1  0  0  0  0  0  0  0  0  0
   25.1790   -2.6950   15.1630 C   0  0  0  0  0  0  0  0  0  0  0  0
   26.6430   -2.9270   13.1940 N   0  0  0  0  0  0  0  0  0  0  0  0
   23.4860   -3.5640   12.6660 C   0  0  0  0  0  0  0  0  0  0  0  0
   22.3340   -3.6300   11.8890 C   0  0  0  0  0  0  0  0  0  0  0  0
   21.7620   -2.4630   11.3980 C   0  0  0  0  0  0  0  0  0  0  0  0
   22.1760    0.9920   10.5420 C   0  0  0  0  0  0  0  0  0  0  0  0
   21.2940    4.8140    9.7560 H   0  0  0  0  0  0  0  0  0  0  0  0
   20.7250    3.9680    8.2620 H   0  0  0  0  0  0  0  0  0  0  0  0
   22.3030    4.7600    8.3080 H   0  0  0  0  0  0  0  0  0  0  0  0
   19.5930    3.1750   10.1470 H   0  0  0  0  0  0  0  0  0  0  0  0
   18.5110    1.5800   11.6150 H   0  0  0  0  0  0  0  0  0  0  0  0
   17.8440   -1.0240   11.3940 H   0  0  0  0  0  0  0  0  0  0  0  0
   17.6880   -3.1340   15.1710 H   0  0  0  0  0  0  0  0  0  0  0  0
   19.8430   -2.1470   15.7890 H   0  0  0  0  0  0  0  0  0  0  0  0
   20.9850   -0.5680   14.2900 H   0  0  0  0  0  0  0  0  0  0  0  0
   23.9840   -0.2060   12.6210 H   0  0  0  0  0  0  0  0  0  0  0  0
   25.7200   -1.2150   13.7520 H   0  0  0  0  0  0  0  0  0  0  0  0
   26.0780   -2.5250   15.7660 H   0  0  0  0  0  0  0  0  0  0  0  0
   24.3620   -2.1150   15.6060 H   0  0  0  0  0  0  0  0  0  0  0  0
   24.9290   -3.7580   15.2470 H   0  0  0  0  0  0  0  0  0  0  0  0
   27.4690   -2.5100   13.5880 H   0  0  0  0  0  0  0  0  0  0  0  0
   23.8710   -4.4880   13.0880 H   0  0  0  0  0  0  0  0  0  0  0  0
   21.8720   -4.5910   11.6850 H   0  0  0  0  0  0  0  0  0  0  0  0
   20.8540   -2.5310   10.8040 H   0  0  0  0  0  0  0  0  0  0  0  0
   23.2090    0.8460   10.2280 H   0  0  0  0  0  0  0  0  0  0  0  0
   27.9210  -13.7070   13.3620 C   0  0  0  0  0  0  0  0  0  0  0  0
   28.0850  -12.9150   14.5340 O   0  0  0  0  0  0  0  0  0  0  0  0
   28.1890  -11.5600   14.3650 C   0  0  0  0  0  0  0  0  0  0  0  0
   28.1240  -10.8770   13.1560 C   0  0  0  0  0  0  0  0  0  0  0  0
   28.2750   -9.4840   13.1270 C   0  0  0  0  0  0  0  0  0  0  0  0
   28.4800   -8.7320   14.3010 C   0  0  0  0  0  0  0  0  0  0  0  0
   28.6870   -7.2650   14.1830 C   0  0  0  0  0  0  0  0  0  0  0  0
   27.7260   -6.4470   13.5680 C   0  0  0  0  0  0  0  0  0  0  0  0
   27.8820   -5.0460   13.4850 C   0  0  0  0  0  0  0  0  0  0  0  0
   26.7390   -4.2780   12.9030 C   0  0  0  0  0  0  0  0  0  0  0  0
   25.9200   -4.9000   12.2370 O   0  0  0  0  0  0  0  0  0  0  0  0
   29.0300   -4.4550   14.0200 C   0  0  0  0  0  0  0  0  0  0  0  0
   29.9920   -5.2500   14.6450 C   0  0  0  0  0  0  0  0  0  0  0  0
   29.8280   -6.6370   14.7100 C   0  0  0  0  0  0  0  0  0  0  0  0
   28.4740   -9.4210   15.5460 C   0  0  0  0  0  0  0  0  0  0  0  0
   28.5470   -8.7100   16.8390 C   0  0  0  0  0  0  0  0  0  0  0  0
   29.5870   -8.9650   17.7600 C   0  0  0  0  0  0  0  0  0  0  0  0
   29.7640   -8.1770   18.9140 C   0  0  0  0  0  0  0  0  0  0  0  0
   30.9550   -8.4040   19.8340 C   0  0  1  0  0  0  0  0  0  0  0  0
   31.9530   -7.2390   19.7660 C   0  0  0  0  0  0  0  0  0  0  0  0
   30.6990   -8.7570   21.2420 N   0  0  0  0  0  0  0  0  0  0  0  0
   28.8780   -7.1050   19.0940 C   0  0  0  0  0  0  0  0  0  0  0  0
   27.7790   -6.9060   18.2610 C   0  0  0  0  0  0  0  0  0  0  0  0
   27.6100   -7.7110   17.1450 C   0  0  0  0  0  0  0  0  0  0  0  0
   28.3530  -10.8280   15.5460 C   0  0  0  0  0  0  0  0  0  0  0  0
   28.7770  -13.5970   12.6870 H   0  0  0  0  0  0  0  0  0  0  0  0
   26.9850  -13.4640   12.8500 H   0  0  0  0  0  0  0  0  0  0  0  0
   27.8680  -14.7590   13.6630 H   0  0  0  0  0  0  0  0  0  0  0  0
   27.9500  -11.3890   12.2160 H   0  0  0  0  0  0  0  0  0  0  0  0
   28.2270   -8.9740   12.1650 H   0  0  0  0  0  0  0  0  0  0  0  0
   26.8140   -6.9050   13.1820 H   0  0  0  0  0  0  0  0  0  0  0  0
   29.2110   -3.3880   13.9750 H   0  0  0  0  0  0  0  0  0  0  0  0
   30.8650   -4.7880   15.1000 H   0  0  0  0  0  0  0  0  0  0  0  0
   30.5960   -7.2290   15.2030 H   0  0  0  0  0  0  0  0  0  0  0  0
   30.3020   -9.7540   17.5310 H   0  0  0  0  0  0  0  0  0  0  0  0
   31.4870   -9.2940   19.4680 H   0  0  0  0  0  0  0  0  0  0  0  0
   32.8140   -7.4170   20.4220 H   0  0  0  0  0  0  0  0  0  0  0  0
   32.3350   -7.1010   18.7490 H   0  0  0  0  0  0  0  0  0  0  0  0
   31.4930   -6.2980   20.0840 H   0  0  0  0  0  0  0  0  0  0  0  0
   31.4760   -9.2390   21.6420 H   0  0  0  0  0  0  0  0  0  0  0  0
   29.0280   -6.3900   19.8980 H   0  0  0  0  0  0  0  0  0  0  0  0
   27.0810   -6.1000   18.4700 H   0  0  0  0  0  0  0  0  0  0  0  0
   26.7730   -7.5130   16.4790 H   0  0  0  0  0  0  0  0  0  0  0  0
   28.3570  -11.3620   16.4950 H   0  0  0  0  0  0  0  0  0  0  0  0
   27.2460   -1.4910   28.5030 C   0  0  0  0  0  0  0  0  0  0  0  0
   28.6080   -1.5650   28.1040 O   0  0  0  0  0  0  0  0  0  0  0  0
   28.9980   -2.6870   27.4260 C   0  0  0  0  0  0  0  0  0  0  0  0
   28.1880   -3.7610   27.0790 C   0  0  0  0  0  0  0  0  0  0  0  0
   28.7330   -4.8570   26.3990 C   0  0  0  0  0  0  0  0  0  0  0  0
   30.0980   -4.9080   26.0490 C   0  0  0  0  0  0  0  0  0  0  0  0
   30.6150   -6.1230   25.3720 C   0  0  0  0  0  0  0  0  0  0  0  0
   30.0720   -6.5570   24.1500 C   0  0  0  0  0  0  0  0  0  0  0  0
   30.5930   -7.6670   23.4540 C   0  0  0  0  0  0  0  0  0  0  0  0
   29.9830   -7.9620   22.1260 C   0  0  0  0  0  0  0  0  0  0  0  0
   28.8940   -7.4450   21.8610 O   0  0  0  0  0  0  0  0  0  0  0  0
   31.6770   -8.3580   23.9950 C   0  0  0  0  0  0  0  0  0  0  0  0
   32.2190   -7.9540   25.2180 C   0  0  0  0  0  0  0  0  0  0  0  0
   31.6870   -6.8570   25.9020 C   0  0  0  0  0  0  0  0  0  0  0  0
   30.9200   -3.7860   26.3630 C   0  0  0  0  0  0  0  0  0  0  0  0
   32.3380   -3.7040   25.9400 C   0  0  0  0  0  0  0  0  0  0  0  0
   33.3870   -3.5460   26.8710 C   0  0  0  0  0  0  0  0  0  0  0  0
   34.7410   -3.6300   26.4800 C   0  0  0  0  0  0  0  0  0  0  0  0
   35.8540   -3.5770   27.5160 C   0  0  1  0  0  0  0  0  0  0  0  0
   36.5720   -4.9250   27.6410 C   0  0  0  0  0  0  0  0  0  0  0  0
   36.8510   -2.4960   27.4300 N   0  0  0  0  0  0  0  0  0  0  0  0
   35.0090   -3.9010   25.1320 C   0  0  0  0  0  0  0  0  0  0  0  0
   33.9960   -3.9580   24.1820 C   0  0  0  0  0  0  0  0  0  0  0  0
   32.6720   -3.8490   24.5830 C   0  0  0  0  0  0  0  0  0  0  0  0
   30.3470   -2.7030   27.0600 C   0  0  0  0  0  0  0  0  0  0  0  0
   26.9740   -2.3350   29.1450 H   0  0  0  0  0  0  0  0  0  0  0  0
   26.5860   -1.4280   27.6320 H   0  0  0  0  0  0  0  0  0  0  0  0
   27.1190   -0.5730   29.0870 H   0  0  0  0  0  0  0  0  0  0  0  0
   27.1300   -3.7830   27.3220 H   0  0  0  0  0  0  0  0  0  0  0  0
   28.0810   -5.6910   26.1430 H   0  0  0  0  0  0  0  0  0  0  0  0
   29.2480   -5.9950   23.7090 H   0  0  0  0  0  0  0  0  0  0  0  0
   32.1230   -9.2130   23.5040 H   0  0  0  0  0  0  0  0  0  0  0  0
   33.0680   -8.4900   25.6370 H   0  0  0  0  0  0  0  0  0  0  0  0
   32.1330   -6.5560   26.8490 H   0  0  0  0  0  0  0  0  0  0  0  0
   33.1370   -3.4120   27.9230 H   0  0  0  0  0  0  0  0  0  0  0  0
   35.3770   -3.3880   28.4870 H   0  0  0  0  0  0  0  0  0  0  0  0
   37.2860   -4.9040   28.4740 H   0  0  0  0  0  0  0  0  0  0  0  0
   35.8640   -5.7400   27.8250 H   0  0  0  0  0  0  0  0  0  0  0  0
   37.1430   -5.1620   26.7370 H   0  0  0  0  0  0  0  0  0  0  0  0
   37.2690   -2.3270   28.3290 H   0  0  0  0  0  0  0  0  0  0  0  0
   36.0260   -4.0680   24.7900 H   0  0  0  0  0  0  0  0  0  0  0  0
   34.2470   -4.1090   23.1360 H   0  0  0  0  0  0  0  0  0  0  0  0
   31.8890   -3.9300   23.8330 H   0  0  0  0  0  0  0  0  0  0  0  0
   30.9560   -1.8340   27.3040 H   0  0  0  0  0  0  0  0  0  0  0  0
   44.7270   -2.4410   19.9980 C   0  0  0  0  0  0  0  0  0  0  0  0
   44.8380   -3.2260   21.1810 O   0  0  0  0  0  0  0  0  0  0  0  0
   43.9480   -2.9630   22.1880 C   0  0  0  0  0  0  0  0  0  0  0  0
   42.9510   -1.9920   22.1640 C   0  0  0  0  0  0  0  0  0  0  0  0
   42.1270   -1.8060   23.2800 C   0  0  0  0  0  0  0  0  0  0  0  0
   42.2680   -2.5870   24.4440 C   0  0  0  0  0  0  0  0  0  0  0  0
   41.3930   -2.2910   25.6040 C   0  0  0  0  0  0  0  0  0  0  0  0
   39.9960   -2.3470   25.4840 C   0  0  0  0  0  0  0  0  0  0  0  0
   39.1430   -2.1290   26.5850 C   0  0  0  0  0  0  0  0  0  0  0  0
   37.6780   -2.2950   26.3400 C   0  0  0  0  0  0  0  0  0  0  0  0
   37.2990   -2.2850   25.1760 O   0  0  0  0  0  0  0  0  0  0  0  0
   39.7010   -1.8320   27.8320 C   0  0  0  0  0  0  0  0  0  0  0  0
   41.0870   -1.7470   27.9640 C   0  0  0  0  0  0  0  0  0  0  0  0
   41.9200   -1.9670   26.8630 C   0  0  0  0  0  0  0  0  0  0  0  0
   43.2570   -3.6140   24.4570 C   0  0  0  0  0  0  0  0  0  0  0  0
   43.4190   -4.5300   25.6110 C   0  0  0  0  0  0  0  0  0  0  0  0
   44.6410   -4.6330   26.3070 C   0  0  0  0  0  0  0  0  0  0  0  0
   44.7550   -5.3790   27.4980 C   0  0  0  0  0  0  0  0  0  0  0  0
   46.0660   -5.3950   28.2640 C   0  0  1  0  0  0  0  0  0  0  0  0
   45.9280   -4.6970   29.6220 C   0  0  0  0  0  0  0  0  0  0  0  0
   46.7630   -6.6800   28.4160 N   0  0  0  0  0  0  0  0  0  0  0  0
   43.5980   -6.0020   27.9880 C   0  0  0  0  0  0  0  0  0  0  0  0
   42.4070   -5.9910   27.2690 C   0  0  0  0  0  0  0  0  0  0  0  0
   42.3240   -5.2700   26.0840 C   0  0  0  0  0  0  0  0  0  0  0  0
   44.0910   -3.7640   23.3280 C   0  0  0  0  0  0  0  0  0  0  0  0
   44.8530   -1.3750   20.2160 H   0  0  0  0  0  0  0  0  0  0  0  0
   43.7760   -2.6330   19.4900 H   0  0  0  0  0  0  0  0  0  0  0  0
   45.5300   -2.7360   19.3140 H   0  0  0  0  0  0  0  0  0  0  0  0
   42.7900   -1.3480   21.3060 H   0  0  0  0  0  0  0  0  0  0  0  0
   41.3730   -1.0210   23.2430 H   0  0  0  0  0  0  0  0  0  0  0  0
   39.5610   -2.5950   24.5160 H   0  0  0  0  0  0  0  0  0  0  0  0
   39.0920   -1.6490   28.7090 H   0  0  0  0  0  0  0  0  0  0  0  0
   41.5270   -1.5130   28.9310 H   0  0  0  0  0  0  0  0  0  0  0  0
   42.9980   -1.8990   26.9980 H   0  0  0  0  0  0  0  0  0  0  0  0
   45.5060   -4.0860   25.9370 H   0  0  0  0  0  0  0  0  0  0  0  0
   46.7890   -4.7990   27.6900 H   0  0  0  0  0  0  0  0  0  0  0  0
   46.8960   -4.6510   30.1340 H   0  0  0  0  0  0  0  0  0  0  0  0
   45.5630   -3.6710   29.4970 H   0  0  0  0  0  0  0  0  0  0  0  0
   45.2350   -5.2240   30.2860 H   0  0  0  0  0  0  0  0  0  0  0  0
   47.7480   -6.5430   28.5600 H   0  0  0  0  0  0  0  0  0  0  0  0
   43.6110   -6.5360   28.9340 H   0  0  0  0  0  0  0  0  0  0  0  0
   41.5470   -6.5390   27.6450 H   0  0  0  0  0  0  0  0  0  0  0  0
   41.3780   -5.2520   25.5470 H   0  0  0  0  0  0  0  0  0  0  0  0
   44.8650   -4.5300   23.3300 H   0  0  0  0  0  0  0  0  0  0  0  0
   43.0820  -14.0620   35.4120 C   0  0  0  0  0  0  0  0  0  0  0  0
   43.8510  -12.9570   35.8710 O   0  0  0  0  0  0  0  0  0  0  0  0
   44.5070  -12.2290   34.9160 C   0  0  0  0  0  0  0  0  0  0  0  0
   44.4960  -12.4680   33.5460 C   0  0  0  0  0  0  0  0  0  0  0  0
   45.2420  -11.6550   32.6810 C   0  0  0  0  0  0  0  0  0  0  0  0
   46.0090  -10.5730   33.1600 C   0  0  0  0  0  0  0  0  0  0  0  0
   46.8210   -9.7810   32.2010 C   0  0  0  0  0  0  0  0  0  0  0  0
   46.2270   -9.1790   31.0810 C   0  0  0  0  0  0  0  0  0  0  0  0
   46.9700   -8.4090   30.1630 C   0  0  0  0  0  0  0  0  0  0  0  0
   46.2050   -7.7740   29.0510 C   0  0  0  0  0  0  0  0  0  0  0  0
   45.0980   -8.2330   28.7920 O   0  0  0  0  0  0  0  0  0  0  0  0
   48.3370   -8.2300   30.3700 C   0  0  0  0  0  0  0  0  0  0  0  0
   48.9480   -8.8150   31.4790 C   0  0  0  0  0  0  0  0  0  0  0  0
   48.2010   -9.5870   32.3760 C   0  0  0  0  0  0  0  0  0  0  0  0
   45.9760  -10.3000   34.5540 C   0  0  0  0  0  0  0  0  0  0  0  0
   46.6530   -9.1370   35.1510 C   0  0  0  0  0  0  0  0  0  0  0  0
   47.6550   -9.3030   36.1290 C   0  0  0  0  0  0  0  0  0  0  0  0
   48.3610   -8.2080   36.6460 C   0  0  0  0  0  0  0  0  0  0  0  0
   49.4970   -8.4060   37.6420 C   0  0  1  0  0  0  0  0  0  0  0  0
   50.8620   -8.3010   36.9460 C   0  0  0  0  0  0  0  0  0  0  0  0
   49.3660   -7.5950   38.8570 N   0  0  0  0  0  0  0  0  0  0  0  0
   48.0330   -6.9420   36.1510 C   0  0  0  0  0  0  0  0  0  0  0  0
   47.0250   -6.7470   35.2130 C   0  0  0  0  0  0  0  0  0  0  0  0
   46.3320   -7.8410   34.7210 C   0  0  0  0  0  0  0  0  0  0  0  0
   45.2390  -11.1480   35.4060 C   0  0  0  0  0  0  0  0  0  0  0  0
   43.7160  -14.7950   34.9020 H   0  0  0  0  0  0  0  0  0  0  0  0
   42.2650  -13.7220   34.7690 H   0  0  0  0  0  0  0  0  0  0  0  0
   42.6350  -14.5600   36.2780 H   0  0  0  0  0  0  0  0  0  0  0  0
   43.9240  -13.2810   33.1090 H   0  0  0  0  0  0  0  0  0  0  0  0
   45.2270  -11.8850   31.6160 H   0  0  0  0  0  0  0  0  0  0  0  0
   45.1530   -9.2870   30.9310 H   0  0  0  0  0  0  0  0  0  0  0  0
   48.9520   -7.6490   29.6920 H   0  0  0  0  0  0  0  0  0  0  0  0
   50.0110   -8.6660   31.6500 H   0  0  0  0  0  0  0  0  0  0  0  0
   48.7100  -10.0290   33.2310 H   0  0  0  0  0  0  0  0  0  0  0  0
   47.9100  -10.3100   36.4590 H   0  0  0  0  0  0  0  0  0  0  0  0
   49.4150   -9.4350   38.0170 H   0  0  0  0  0  0  0  0  0  0  0  0
   51.6750   -8.4840   37.6560 H   0  0  0  0  0  0  0  0  0  0  0  0
   50.9460   -9.0280   36.1320 H   0  0  0  0  0  0  0  0  0  0  0  0
   51.0290   -7.3210   36.4900 H   0  0  0  0  0  0  0  0  0  0  0  0
   49.9720   -7.9720   39.5860 H   0  0  0  0  0  0  0  0  0  0  0  0
   48.5740   -6.0790   36.4920 H   0  0  0  0  0  0  0  0  0  0  0  0
   46.7970   -5.7460   34.8590 H   0  0  0  0  0  0  0  0  0  0  0  0
   45.5610   -7.6830   33.9700 H   0  0  0  0  0  0  0  0  0  0  0  0
   45.2210  -10.9410   36.4760 H   0  0  0  0  0  0  0  0  0  0  0  0
   -5.4250   -5.5120   -1.7530 C   0  0  0  0  0  0  0  0  0  0  0  0
   -4.2160   -4.8990   -1.3000 O   0  0  0  0  0  0  0  0  0  0  0  0
   -6.1800   -5.4040   -0.9680 H   0  0  0  0  0  0  0  0  0  0  0  0
   -5.2290   -6.5780   -1.9000 H   0  0  0  0  0  0  0  0  0  0  0  0
   -5.7990   -5.0940   -2.6930 H   0  0  0  0  0  0  0  0  0  0  0  0
   52.1220   -4.4730   37.0520 C   0  0  0  0  0  0  0  0  0  0  0  0
   50.8270   -4.4250   37.8830 C   0  0  0  0  0  0  0  0  0  0  0  0
   51.0720   -3.6060   39.1450 C   0  0  0  0  0  0  0  0  0  0  0  0
   49.7200   -3.8150   37.0180 C   0  0  0  0  0  0  0  0  0  0  0  0
   50.5530   -5.8180   38.1790 O   0  0  0  0  0  0  0  0  0  0  0  0
   49.4800   -6.2300   38.8890 C   0  0  0  0  0  0  0  0  0  0  0  0
   48.7240   -5.5060   39.5140 O   0  0  0  0  0  0  0  0  0  0  0  0
   52.4490   -3.4760   36.7360 H   0  0  0  0  0  0  0  0  0  0  0  0
   52.9320   -4.9400   37.6230 H   0  0  0  0  0  0  0  0  0  0  0  0
   51.9890   -5.0930   36.1570 H   0  0  0  0  0  0  0  0  0  0  0  0
   51.8240   -4.0890   39.7790 H   0  0  0  0  0  0  0  0  0  0  0  0
   50.1690   -3.4990   39.7540 H   0  0  0  0  0  0  0  0  0  0  0  0
   51.4160   -2.5980   38.8870 H   0  0  0  0  0  0  0  0  0  0  0  0
   49.6030   -4.3910   36.0960 H   0  0  0  0  0  0  0  0  0  0  0  0
   48.7540   -3.8170   37.5330 H   0  0  0  0  0  0  0  0  0  0  0  0
   49.9450   -2.7860   36.7230 H   0  0  0  0  0  0  0  0  0  0  0  0
  1 28  1  0  0  0  0
  1 26  1  0  0  0  0
  1  2  1  0  0  0  0
  2  3  1  0  0  0  0
  3  4  2  0  0  0  0
  4 29  1  0  0  0  0
  4  5  1  0  0  0  0
  5 30  1  0  0  0  0
  5  6  2  0  0  0  0
  6  7  1  0  0  0  0
  7 14  1  0  0  0  0
  7  8  2  0  0  0  0
  8  9  1  0  0  0  0
  9 12  2  0  0  0  0
 10354  1  0  0  0  0
  9 10  1  0  0  0  0
 10 11  2  0  0  0  0
 12 13  1  0  0  0  0
 13 14  2  0  0  0  0
 13 33  1  0  0  0  0
 14 34  1  0  0  0  0
 15 25  2  0  0  0  0
  6 15  1  0  0  0  0
 15 16  1  0  0  0  0
 16 17  2  0  0  0  0
 17 35  1  0  0  0  0
 17 18  1  0  0  0  0
 18 19  1  0  0  0  0
 19 36  1  0  0  0  0
 19 20  1  0  0  0  0
 20 38  1  0  0  0  0
 20 37  1  0  0  0  0
 19 21  1  0  0  0  0
 21 40  1  0  0  0  0
 18 22  2  0  0  0  0
 23 24  2  0  0  0  0
 22 23  1  0  0  0  0
 16 24  1  0  0  0  0
  3 25  1  0  0  0  0
  1 27  1  0  0  0  0
  8 31  1  0  0  0  0
 12 32  1  0  0  0  0
 20 39  1  0  0  0  0
 22 41  1  0  0  0  0
 23 42  1  0  0  0  0
 24 43  1  0  0  0  0
 25 44  1  0  0  0  0
 45 46  1  0  0  0  0
 46 47  1  0  0  0  0
 47 69  2  0  0  0  0
 47 48  1  0  0  0  0
 48 49  2  0  0  0  0
 49 50  1  0  0  0  0
 50 59  2  0  0  0  0
 50 51  1  0  0  0  0
 51 58  1  0  0  0  0
 51 52  2  0  0  0  0
 52 53  1  0  0  0  0
 53 56  2  0  0  0  0
 53 54  1  0  0  0  0
 21 54  1  0  0  0  0
 54 55  2  0  0  0  0
 56 57  1  0  0  0  0
 56 76  1  0  0  0  0
 57 77  1  0  0  0  0
 58 78  1  0  0  0  0
 57 58  2  0  0  0  0
 59 60  1  0  0  0  0
 60 68  1  0  0  0  0
 60 61  2  0  0  0  0
 61 62  1  0  0  0  0
 62 66  2  0  0  0  0
 62 63  1  0  0  0  0
 63 80  1  0  0  0  0
 63 65  1  0  0  0  0
 63 64  1  0  0  0  0
 64 81  1  0  0  0  0
 64 83  1  0  0  0  0
 65 84  1  0  0  0  0
 65 98  1  0  0  0  0
 66 85  1  0  0  0  0
 67 86  1  0  0  0  0
 66 67  1  0  0  0  0
 67 68  2  0  0  0  0
 69 88  1  0  0  0  0
 59 69  1  0  0  0  0
 45 70  1  0  0  0  0
 45 71  1  0  0  0  0
 45 72  1  0  0  0  0
 48 73  1  0  0  0  0
 49 74  1  0  0  0  0
 52 75  1  0  0  0  0
 61 79  1  0  0  0  0
 64 82  1  0  0  0  0
 68 87  1  0  0  0  0
 89116  1  0  0  0  0
 89 90  1  0  0  0  0
 90 91  1  0  0  0  0
 91 92  2  0  0  0  0
 92 93  1  0  0  0  0
 93 94  2  0  0  0  0
 94103  1  0  0  0  0
 95102  1  0  0  0  0
 94 95  1  0  0  0  0
 95 96  2  0  0  0  0
 97100  2  0  0  0  0
 96 97  1  0  0  0  0
 97 98  1  0  0  0  0
 98 99  2  0  0  0  0
100101  1  0  0  0  0
101121  1  0  0  0  0
101102  2  0  0  0  0
102122  1  0  0  0  0
103113  2  0  0  0  0
103104  1  0  0  0  0
104105  2  0  0  0  0
105123  1  0  0  0  0
105106  1  0  0  0  0
106107  1  0  0  0  0
107124  1  0  0  0  0
107109  1  0  0  0  0
107108  1  0  0  0  0
108125  1  0  0  0  0
109128  1  0  0  0  0
106110  2  0  0  0  0
111112  2  0  0  0  0
110111  1  0  0  0  0
104112  1  0  0  0  0
 91113  1  0  0  0  0
113132  1  0  0  0  0
 89114  1  0  0  0  0
 89115  1  0  0  0  0
 92117  1  0  0  0  0
 93118  1  0  0  0  0
 96119  1  0  0  0  0
100120  1  0  0  0  0
108126  1  0  0  0  0
108127  1  0  0  0  0
110129  1  0  0  0  0
111130  1  0  0  0  0
112131  1  0  0  0  0
133134  1  0  0  0  0
133158  1  0  0  0  0
134135  1  0  0  0  0
135136  2  0  0  0  0
135157  1  0  0  0  0
136137  1  0  0  0  0
137162  1  0  0  0  0
137138  2  0  0  0  0
138139  1  0  0  0  0
139146  1  0  0  0  0
139140  2  0  0  0  0
140141  1  0  0  0  0
141144  2  0  0  0  0
141142  1  0  0  0  0
109142  1  0  0  0  0
142143  2  0  0  0  0
144145  1  0  0  0  0
144164  1  0  0  0  0
145165  1  0  0  0  0
146166  1  0  0  0  0
145146  2  0  0  0  0
147148  1  0  0  0  0
138147  1  0  0  0  0
148149  2  0  0  0  0
149167  1  0  0  0  0
149150  1  0  0  0  0
150151  1  0  0  0  0
151168  1  0  0  0  0
151152  1  0  0  0  0
152171  1  0  0  0  0
152170  1  0  0  0  0
152169  1  0  0  0  0
153172  1  0  0  0  0
151153  1  0  0  0  0
150154  2  0  0  0  0
154173  1  0  0  0  0
154155  1  0  0  0  0
148156  1  0  0  0  0
155156  2  0  0  0  0
147157  2  0  0  0  0
133159  1  0  0  0  0
133160  1  0  0  0  0
136161  1  0  0  0  0
140163  1  0  0  0  0
155174  1  0  0  0  0
156175  1  0  0  0  0
157176  1  0  0  0  0
177204  1  0  0  0  0
177178  1  0  0  0  0
178179  1  0  0  0  0
179201  2  0  0  0  0
179180  1  0  0  0  0
180181  2  0  0  0  0
181182  1  0  0  0  0
182191  2  0  0  0  0
182183  1  0  0  0  0
183190  1  0  0  0  0
183184  2  0  0  0  0
184185  1  0  0  0  0
185188  2  0  0  0  0
153186  1  0  0  0  0
185186  1  0  0  0  0
186187  2  0  0  0  0
188189  1  0  0  0  0
189190  2  0  0  0  0
189209  1  0  0  0  0
190210  1  0  0  0  0
191192  1  0  0  0  0
192200  1  0  0  0  0
192193  2  0  0  0  0
193194  1  0  0  0  0
194198  2  0  0  0  0
194195  1  0  0  0  0
195212  1  0  0  0  0
195197  1  0  0  0  0
195196  1  0  0  0  0
196215  1  0  0  0  0
196213  1  0  0  0  0
197216  1  0  0  0  0
197230  1  0  0  0  0
198217  1  0  0  0  0
199218  1  0  0  0  0
198199  1  0  0  0  0
199200  2  0  0  0  0
191201  1  0  0  0  0
201220  1  0  0  0  0
177202  1  0  0  0  0
177203  1  0  0  0  0
180205  1  0  0  0  0
181206  1  0  0  0  0
184207  1  0  0  0  0
188208  1  0  0  0  0
193211  1  0  0  0  0
196214  1  0  0  0  0
200219  1  0  0  0  0
221248  1  0  0  0  0
221246  1  0  0  0  0
221222  1  0  0  0  0
222223  1  0  0  0  0
224249  1  0  0  0  0
223224  2  0  0  0  0
224225  1  0  0  0  0
226235  1  0  0  0  0
225226  2  0  0  0  0
227234  1  0  0  0  0
226227  1  0  0  0  0
227228  2  0  0  0  0
229232  2  0  0  0  0
228229  1  0  0  0  0
229230  1  0  0  0  0
230231  2  0  0  0  0
232233  1  0  0  0  0
233253  1  0  0  0  0
233234  2  0  0  0  0
234254  1  0  0  0  0
235245  2  0  0  0  0
235236  1  0  0  0  0
236237  2  0  0  0  0
237255  1  0  0  0  0
237238  1  0  0  0  0
238239  1  0  0  0  0
239240  1  0  0  0  0
239256  1  0  0  0  0
240258  1  0  0  0  0
240257  1  0  0  0  0
239241  1  0  0  0  0
241260  1  0  0  0  0
238242  2  0  0  0  0
243244  2  0  0  0  0
242243  1  0  0  0  0
236244  1  0  0  0  0
245264  1  0  0  0  0
223245  1  0  0  0  0
221247  1  0  0  0  0
225250  1  0  0  0  0
228251  1  0  0  0  0
232252  1  0  0  0  0
240259  1  0  0  0  0
242261  1  0  0  0  0
243262  1  0  0  0  0
244263  1  0  0  0  0
265290  1  0  0  0  0
265266  1  0  0  0  0
266267  1  0  0  0  0
267289  2  0  0  0  0
267268  1  0  0  0  0
268269  2  0  0  0  0
269270  1  0  0  0  0
270279  2  0  0  0  0
270271  1  0  0  0  0
271278  1  0  0  0  0
271272  2  0  0  0  0
272273  1  0  0  0  0
273276  2  0  0  0  0
273274  1  0  0  0  0
241274  1  0  0  0  0
274275  2  0  0  0  0
276277  1  0  0  0  0
276296  1  0  0  0  0
277297  1  0  0  0  0
278298  1  0  0  0  0
277278  2  0  0  0  0
279280  1  0  0  0  0
280288  1  0  0  0  0
280281  2  0  0  0  0
281282  1  0  0  0  0
282286  2  0  0  0  0
282283  1  0  0  0  0
283300  1  0  0  0  0
283285  1  0  0  0  0
283284  1  0  0  0  0
284301  1  0  0  0  0
284303  1  0  0  0  0
285304  1  0  0  0  0
285318  1  0  0  0  0
286305  1  0  0  0  0
287306  1  0  0  0  0
286287  1  0  0  0  0
287288  2  0  0  0  0
289308  1  0  0  0  0
279289  1  0  0  0  0
265291  1  0  0  0  0
265292  1  0  0  0  0
268293  1  0  0  0  0
269294  1  0  0  0  0
272295  1  0  0  0  0
281299  1  0  0  0  0
284302  1  0  0  0  0
288307  1  0  0  0  0
309310  1  0  0  0  0
309336  1  0  0  0  0
311333  2  0  0  0  0
310311  1  0  0  0  0
311312  1  0  0  0  0
313314  1  0  0  0  0
312313  2  0  0  0  0
314323  2  0  0  0  0
315322  1  0  0  0  0
314315  1  0  0  0  0
315316  2  0  0  0  0
317320  2  0  0  0  0
316317  1  0  0  0  0
317318  1  0  0  0  0
318319  2  0  0  0  0
320321  1  0  0  0  0
321341  1  0  0  0  0
321322  2  0  0  0  0
322342  1  0  0  0  0
323324  1  0  0  0  0
323333  1  0  0  0  0
324325  2  0  0  0  0
325343  1  0  0  0  0
325326  1  0  0  0  0
326327  1  0  0  0  0
327344  1  0  0  0  0
327329  1  0  0  0  0
327328  1  0  0  0  0
328345  1  0  0  0  0
329363  1  0  0  0  0
329348  1  0  0  0  0
330349  1  0  0  0  0
326330  2  0  0  0  0
330331  1  0  0  0  0
324332  1  0  0  0  0
331332  2  0  0  0  0
333352  1  0  0  0  0
309334  1  0  0  0  0
309335  1  0  0  0  0
312337  1  0  0  0  0
313338  1  0  0  0  0
316339  1  0  0  0  0
320340  1  0  0  0  0
328346  1  0  0  0  0
328347  1  0  0  0  0
331350  1  0  0  0  0
332351  1  0  0  0  0
353354  1  0  0  0  0
353355  1  0  0  0  0
353356  1  0  0  0  0
353357  1  0  0  0  0
358366  1  0  0  0  0
358359  1  0  0  0  0
359362  1  0  0  0  0
359360  1  0  0  0  0
360369  1  0  0  0  0
360368  1  0  0  0  0
361372  1  0  0  0  0
359361  1  0  0  0  0
362363  1  0  0  0  0
363364  2  0  0  0  0
358365  1  0  0  0  0
358367  1  0  0  0  0
360370  1  0  0  0  0
361371  1  0  0  0  0
361373  1  0  0  0  0
M  END
> <atom.dprop.PartialCharge>
0.107950 -0.319410 0.120380 -0.201930 -0.084060 -0.064920 -0.050300 -0.061020 -0.130280 0.646300 -0.533200 -0.076110 -0.140730 -0.084930 0.007360 -0.041970 -0.095360 -0.104740 0.148260 -0.108090 -0.568090 -0.120710 -0.129280 -0.106840 -0.145090 0.044410 0.044410 0.044410 0.141070 0.141260 0.158330 0.148630 0.145870 0.140200 0.145250 0.095650 0.044180 0.044180 0.044180 0.306910 0.125140 0.132360 0.136830 0.156380 0.109510 -0.326490 0.122050 -0.151450 -0.083150 -0.064990 -0.044060 -0.087630 -0.138570 0.680090 -0.606700 -0.075810 -0.143930 -0.094310 0.004350 -0.041150 -0.112670 -0.097760 0.153570 -0.113680 -0.570080 -0.108610 -0.129790 -0.109190 -0.201550 0.045960 0.045960 0.045960 0.153890 0.147190 0.139270 0.157480 0.137920 0.137670 0.132230 0.086640 0.044950 0.044950 0.044950 0.310470 0.139650 0.135940 0.137790 0.144580 0.111020 -0.323400 0.128290 -0.156190 -0.089560 -0.069200 -0.042140 -0.090850 -0.143870 0.674760 -0.606560 -0.075430 -0.142340 -0.096400 0.019090 -0.036790 -0.120560 -0.107780 0.153270 -0.112490 -0.565670 -0.112170 -0.131230 -0.090540 -0.184160 0.043320 0.043320 0.043320 0.153230 0.140800 0.140900 0.156420 0.138870 0.141830 0.129510 0.082800 0.045080 0.045080 0.045080 0.309970 0.136590 0.137520 0.147050 0.138900 0.112030 -0.323850 0.123890 -0.152570 -0.082510 -0.065310 -0.044830 -0.089290 -0.139230 0.676000 -0.612540 -0.074020 -0.141270 -0.091900 0.001030 -0.040530 -0.106730 -0.092970 0.150670 -0.115690 -0.568330 -0.121210 -0.127120 -0.109470 -0.202880 0.044870 0.044870 0.044870 0.154760 0.148150 0.135770 0.157200 0.139050 0.138230 0.131560 0.077220 0.048900 0.048900 0.048900 0.309570 0.132460 0.136750 0.138880 0.143120 0.112240 -0.324710 0.124290 -0.206830 -0.087910 -0.065320 -0.047490 -0.094580 -0.147360 0.670470 -0.606040 -0.069250 -0.132310 -0.085820 0.007300 -0.041840 -0.104670 -0.099110 0.145720 -0.101100 -0.565150 -0.110740 -0.130700 -0.115500 -0.147450 0.045590 0.045590 0.045590 0.139590 0.138350 0.136420 0.154700 0.142670 0.145320 0.132240 0.091390 0.044810 0.044810 0.044810 0.303980 0.137100 0.131600 0.130890 0.157400 0.112000 -0.326610 0.123840 -0.204060 -0.082510 -0.068350 -0.045220 -0.091870 -0.147170 0.676150 -0.599140 -0.079460 -0.134350 -0.076580 0.005040 -0.042380 -0.092030 -0.108030 0.151870 -0.104200 -0.562150 -0.118730 -0.136130 -0.114940 -0.146950 0.045290 0.045290 0.045290 0.140770 0.145880 0.137230 0.151160 0.137440 0.146730 0.146790 0.090040 0.045480 0.045480 0.045480 0.306090 0.127250 0.133970 0.131710 0.155400 0.113610 -0.324710 0.126760 -0.194840 -0.080570 -0.065320 -0.044240 -0.085890 -0.136530 0.686690 -0.609470 -0.082820 -0.147950 -0.086110 0.004710 -0.043070 -0.090730 -0.109790 0.149540 -0.102440 -0.565290 -0.117370 -0.133290 -0.107830 -0.146320 0.042660 0.042660 0.042660 0.133750 0.139280 0.142860 0.149670 0.133650 0.145360 0.144350 0.085260 0.044510 0.044510 0.044510 0.304150 0.126460 0.132640 0.135400 0.155480 0.112130 -0.325700 0.125920 -0.205570 -0.085440 -0.070740 -0.044360 -0.090750 -0.134970 0.681050 -0.608020 -0.065380 -0.138370 -0.090880 0.005320 -0.043210 -0.106000 -0.097550 0.163010 -0.115880 -0.559230 -0.102990 -0.124320 -0.102890 -0.145840 0.046110 0.046110 0.046110 0.140460 0.139200 0.132910 0.153750 0.137130 0.137760 0.135560 0.082470 0.048480 0.048480 0.048480 0.331830 0.132950 0.136230 0.135860 0.157760 0.125740 -0.439370 0.050390 0.050390 0.050390 -0.113630 0.188270 -0.113630 -0.113630 -0.451410 0.750180 -0.605210 0.051090 0.051090 0.051090 0.051090 0.051090 0.051090 0.051090 0.051090 0.051090

$$$$
