pmp_trimer.pdb
  -OEChem-10042408573D

153161  0     1  0  0  0  0  0999 V2000
    2.1550    4.8980   -0.8130 C   0  0  0  0  0  0  0  0  0  0  0  0
    0.9620    4.1430   -0.9810 O   0  0  0  0  0  0  0  0  0  0  0  0
    1.0050    2.8230   -0.6220 C   0  0  0  0  0  0  0  0  0  0  0  0
    2.1030    2.1580   -0.0750 C   0  0  0  0  0  0  0  0  0  0  0  0
    2.0320    0.7960    0.2600 C   0  0  0  0  0  0  0  0  0  0  0  0
    3.1850    0.0910    0.8480 C   0  0  0  0  0  0  0  0  0  0  0  0
    4.4830    0.2680    0.3390 C   0  0  0  0  0  0  0  0  0  0  0  0
    5.5750   -0.4100    0.8880 C   0  0  0  0  0  0  0  0  0  0  0  0
    5.3880   -1.2940    1.9550 C   0  0  0  0  0  0  0  0  0  0  0  0
    6.5520   -2.0960    2.4110 C   0  0  0  0  0  0  0  0  0  0  0  0
    7.6780   -1.9720    1.9600 O   0  0  0  0  0  0  0  0  0  0  0  0
    4.1040   -1.4770    2.4790 C   0  0  0  0  0  0  0  0  0  0  0  0
    3.0190   -0.7900    1.9310 C   0  0  0  0  0  0  0  0  0  0  0  0
    0.8200    0.1180    0.0310 C   0  0  0  0  0  0  0  0  0  0  0  0
   -0.3060    0.7610   -0.5060 C   0  0  0  0  0  0  0  0  0  0  0  0
   -1.5750    0.0300   -0.6800 C   0  0  0  0  0  0  0  0  0  0  0  0
   -1.6180   -1.2660   -1.2240 C   0  0  0  0  0  0  0  0  0  0  0  0
   -2.8300   -1.9540   -1.3830 C   0  0  0  0  0  0  0  0  0  0  0  0
   -4.0350   -1.3700   -0.9780 C   0  0  0  0  0  0  0  0  0  0  0  0
   -5.3710   -2.0620   -1.2280 C   0  0  1  0  0  0  0  0  0  0  0  0
   -6.1400   -2.3570    0.0540 C   0  0  0  0  0  0  0  0  0  0  0  0
   -6.1220   -1.3290   -2.2510 N   0  0  0  0  0  0  0  0  0  0  0  0
   -3.9860   -0.0960   -0.3930 C   0  0  0  0  0  0  0  0  0  0  0  0
   -2.7850    0.6020   -0.2740 C   0  0  0  0  0  0  0  0  0  0  0  0
   -0.1860    2.1230   -0.8280 C   0  0  0  0  0  0  0  0  0  0  0  0
    2.9650    4.4970   -1.4330 H   0  0  0  0  0  0  0  0  0  0  0  0
    1.9540    5.9190   -1.1480 H   0  0  0  0  0  0  0  0  0  0  0  0
    2.4510    4.9470    0.2400 H   0  0  0  0  0  0  0  0  0  0  0  0
    3.0300    2.6890    0.1180 H   0  0  0  0  0  0  0  0  0  0  0  0
    4.6540    0.9170   -0.5180 H   0  0  0  0  0  0  0  0  0  0  0  0
    6.5640   -0.2710    0.4560 H   0  0  0  0  0  0  0  0  0  0  0  0
    3.9250   -2.1680    3.3000 H   0  0  0  0  0  0  0  0  0  0  0  0
    2.0320   -0.9580    2.3600 H   0  0  0  0  0  0  0  0  0  0  0  0
    0.7450   -0.9360    0.2950 H   0  0  0  0  0  0  0  0  0  0  0  0
   -0.7000   -1.7540   -1.5460 H   0  0  0  0  0  0  0  0  0  0  0  0
   -2.8150   -2.9480   -1.8260 H   0  0  0  0  0  0  0  0  0  0  0  0
   -5.1660   -3.0300   -1.7020 H   0  0  0  0  0  0  0  0  0  0  0  0
   -5.5330   -2.9680    0.7290 H   0  0  0  0  0  0  0  0  0  0  0  0
   -6.4130   -1.4510    0.6000 H   0  0  0  0  0  0  0  0  0  0  0  0
   -7.0610   -2.9050   -0.1690 H   0  0  0  0  0  0  0  0  0  0  0  0
   -5.6960   -1.4250   -3.1570 H   0  0  0  0  0  0  0  0  0  0  0  0
   -4.8960    0.3890   -0.0430 H   0  0  0  0  0  0  0  0  0  0  0  0
   -2.8120    1.6010    0.1560 H   0  0  0  0  0  0  0  0  0  0  0  0
   -1.0350    2.6590   -1.2500 H   0  0  0  0  0  0  0  0  0  0  0  0
   -6.8430    7.9880   -5.5340 C   0  0  0  0  0  0  0  0  0  0  0  0
   -5.4850    7.9190   -5.9560 O   0  0  0  0  0  0  0  0  0  0  0  0
   -4.7920    6.7820   -5.6390 C   0  0  0  0  0  0  0  0  0  0  0  0
   -5.2980    5.6800   -4.9520 C   0  0  0  0  0  0  0  0  0  0  0  0
   -4.4900    4.5610   -4.6850 C   0  0  0  0  0  0  0  0  0  0  0  0
   -5.0330    3.3790   -3.9940 C   0  0  0  0  0  0  0  0  0  0  0  0
   -5.8580    3.5020   -2.8660 C   0  0  0  0  0  0  0  0  0  0  0  0
   -6.4040    2.3730   -2.2470 C   0  0  0  0  0  0  0  0  0  0  0  0
   -6.1290    1.0850   -2.7320 C   0  0  0  0  0  0  0  0  0  0  0  0
   -6.6560   -0.0800   -1.9510 C   0  0  0  0  0  0  0  0  0  0  0  0
   -7.4070    0.1080   -1.0120 O   0  0  0  0  0  0  0  0  0  0  0  0
   -5.2730    0.9520   -3.8300 C   0  0  0  0  0  0  0  0  0  0  0  0
   -4.7440    2.0850   -4.4530 C   0  0  0  0  0  0  0  0  0  0  0  0
   -3.1580    4.5820   -5.1320 C   0  0  0  0  0  0  0  0  0  0  0  0
   -2.6240    5.6680   -5.8390 C   0  0  0  0  0  0  0  0  0  0  0  0
   -1.2400    5.6240   -6.3440 C   0  0  0  0  0  0  0  0  0  0  0  0
   -0.1760    5.1540   -5.5540 C   0  0  0  0  0  0  0  0  0  0  0  0
    1.1370    5.1130   -6.0440 C   0  0  0  0  0  0  0  0  0  0  0  0
    1.4190    5.5210   -7.3530 C   0  0  0  0  0  0  0  0  0  0  0  0
    2.8550    5.5780   -7.8620 C   0  0  1  0  0  0  0  0  0  0  0  0
    3.0970    4.6630   -9.0590 C   0  0  0  0  0  0  0  0  0  0  0  0
    3.2600    6.9720   -8.0510 N   0  0  0  0  0  0  0  0  0  0  0  0
    0.3490    5.9380   -8.1590 C   0  0  0  0  0  0  0  0  0  0  0  0
   -0.9490    6.0160   -7.6560 C   0  0  0  0  0  0  0  0  0  0  0  0
   -3.4650    6.7670   -6.0780 C   0  0  0  0  0  0  0  0  0  0  0  0
   -6.9220    7.9270   -4.4440 H   0  0  0  0  0  0  0  0  0  0  0  0
   -7.2380    8.9610   -5.8410 H   0  0  0  0  0  0  0  0  0  0  0  0
   -7.4480    7.2140   -6.0180 H   0  0  0  0  0  0  0  0  0  0  0  0
   -6.3350    5.6570   -4.6320 H   0  0  0  0  0  0  0  0  0  0  0  0
   -6.0710    4.4810   -2.4430 H   0  0  0  0  0  0  0  0  0  0  0  0
   -7.0190    2.5020   -1.3580 H   0  0  0  0  0  0  0  0  0  0  0  0
   -4.9660   -0.0090   -4.2210 H   0  0  0  0  0  0  0  0  0  0  0  0
   -4.0940    1.9390   -5.3150 H   0  0  0  0  0  0  0  0  0  0  0  0
   -2.5250    3.7150   -4.9500 H   0  0  0  0  0  0  0  0  0  0  0  0
   -0.3570    4.8250   -4.5320 H   0  0  0  0  0  0  0  0  0  0  0  0
    1.9290    4.7600   -5.3880 H   0  0  0  0  0  0  0  0  0  0  0  0
    3.5120    5.2200   -7.0590 H   0  0  0  0  0  0  0  0  0  0  0  0
    2.8080    3.6340   -8.8180 H   0  0  0  0  0  0  0  0  0  0  0  0
    2.5240    4.9560   -9.9430 H   0  0  0  0  0  0  0  0  0  0  0  0
    4.1580    4.6630   -9.3330 H   0  0  0  0  0  0  0  0  0  0  0  0
    3.3740    7.4410   -7.1700 H   0  0  0  0  0  0  0  0  0  0  0  0
    0.5150    6.2400   -9.1910 H   0  0  0  0  0  0  0  0  0  0  0  0
   -1.7370    6.3780   -8.3140 H   0  0  0  0  0  0  0  0  0  0  0  0
   -3.0890    7.6330   -6.6190 H   0  0  0  0  0  0  0  0  0  0  0  0
   -1.0930   15.6390  -10.1150 C   0  0  0  0  0  0  0  0  0  0  0  0
   -1.7690   15.5570   -8.8670 O   0  0  0  0  0  0  0  0  0  0  0  0
   -1.6320   14.3950   -8.1600 C   0  0  0  0  0  0  0  0  0  0  0  0
   -0.8210   13.3160   -8.5050 C   0  0  0  0  0  0  0  0  0  0  0  0
   -0.7440   12.1760   -7.6850 C   0  0  0  0  0  0  0  0  0  0  0  0
    0.1360   11.0490   -8.0270 C   0  0  0  0  0  0  0  0  0  0  0  0
    0.1900   10.5370   -9.3300 C   0  0  0  0  0  0  0  0  0  0  0  0
    1.0520    9.4870   -9.6530 C   0  0  0  0  0  0  0  0  0  0  0  0
    1.8790    8.9120   -8.6760 C   0  0  0  0  0  0  0  0  0  0  0  0
    2.6900    7.7160   -9.0730 C   0  0  0  0  0  0  0  0  0  0  0  0
    2.7210    7.3670  -10.2480 O   0  0  0  0  0  0  0  0  0  0  0  0
    1.8000    9.3890   -7.3640 C   0  0  0  0  0  0  0  0  0  0  0  0
    0.9470   10.4490   -7.0500 C   0  0  0  0  0  0  0  0  0  0  0  0
   -1.5050   12.1510   -6.5060 C   0  0  0  0  0  0  0  0  0  0  0  0
   -2.3200   13.2220   -6.1260 C   0  0  0  0  0  0  0  0  0  0  0  0
   -3.0360   13.1910   -4.8430 C   0  0  0  0  0  0  0  0  0  0  0  0
   -3.7360   12.0560   -4.3920 C   0  0  0  0  0  0  0  0  0  0  0  0
   -4.4100   12.0490   -3.1600 C   0  0  0  0  0  0  0  0  0  0  0  0
   -4.3870   13.1790   -2.3410 C   0  0  0  0  0  0  0  0  0  0  0  0
   -5.1880   13.2730   -1.0510 C   0  0  1  0  0  0  0  0  0  0  0  0
   -4.2980   13.3700    0.1890 C   0  0  0  0  0  0  0  0  0  0  0  0
   -6.2170   14.3110   -1.1800 N   0  0  0  0  0  0  0  0  0  0  0  0
   -3.6420   14.2770   -2.7760 C   0  0  0  0  0  0  0  0  0  0  0  0
   -2.9970   14.3020   -4.0040 C   0  0  0  0  0  0  0  0  0  0  0  0
   -2.3710   14.3400   -6.9750 C   0  0  0  0  0  0  0  0  0  0  0  0
   -1.4400   14.8610  -10.8040 H   0  0  0  0  0  0  0  0  0  0  0  0
   -1.3310   16.6090  -10.5620 H   0  0  0  0  0  0  0  0  0  0  0  0
   -0.0070   15.5930   -9.9820 H   0  0  0  0  0  0  0  0  0  0  0  0
   -0.2120   13.3490   -9.4030 H   0  0  0  0  0  0  0  0  0  0  0  0
   -0.4600   10.9390  -10.1060 H   0  0  0  0  0  0  0  0  0  0  0  0
    1.0470    9.0950  -10.6690 H   0  0  0  0  0  0  0  0  0  0  0  0
    2.3640    8.9550   -6.5480 H   0  0  0  0  0  0  0  0  0  0  0  0
    0.9210   10.8020   -6.0200 H   0  0  0  0  0  0  0  0  0  0  0  0
   -1.4420   11.2810   -5.8520 H   0  0  0  0  0  0  0  0  0  0  0  0
   -3.7760   11.1600   -5.0100 H   0  0  0  0  0  0  0  0  0  0  0  0
   -4.9560   11.1560   -2.8640 H   0  0  0  0  0  0  0  0  0  0  0  0
   -5.7630   12.3430   -0.9460 H   0  0  0  0  0  0  0  0  0  0  0  0
   -3.6070   12.5210    0.2350 H   0  0  0  0  0  0  0  0  0  0  0  0
   -3.6760   14.2690    0.2040 H   0  0  0  0  0  0  0  0  0  0  0  0
   -4.9040   13.3670    1.1020 H   0  0  0  0  0  0  0  0  0  0  0  0
   -6.9260   14.0820   -1.8640 H   0  0  0  0  0  0  0  0  0  0  0  0
   -3.5780   15.1540   -2.1570 H   0  0  0  0  0  0  0  0  0  0  0  0
   -2.4640   15.2060   -4.2910 H   0  0  0  0  0  0  0  0  0  0  0  0
   -2.9930   15.1950   -6.7160 H   0  0  0  0  0  0  0  0  0  0  0  0
    6.9020   -4.2580    3.2250 C   0  0  0  0  0  0  0  0  0  0  0  0
    6.1180   -3.0690    3.2480 O   0  0  0  0  0  0  0  0  0  0  0  0
    6.5310   -4.8800    2.4040 H   0  0  0  0  0  0  0  0  0  0  0  0
    6.7430   -4.7950    4.1640 H   0  0  0  0  0  0  0  0  0  0  0  0
    7.9720   -4.0700    3.1010 H   0  0  0  0  0  0  0  0  0  0  0  0
   -3.6340   17.5240    0.8900 C   0  0  0  0  0  0  0  0  0  0  0  0
   -4.4910   17.4320   -0.3820 C   0  0  0  0  0  0  0  0  0  0  0  0
   -5.5720   18.5140   -0.3320 C   0  0  0  0  0  0  0  0  0  0  0  0
   -3.5670   17.6410   -1.5880 C   0  0  0  0  0  0  0  0  0  0  0  0
   -5.0310   16.0810   -0.3670 O   0  0  0  0  0  0  0  0  0  0  0  0
   -5.9780   15.6620   -1.2360 C   0  0  0  0  0  0  0  0  0  0  0  0
   -6.5810   16.3660   -2.0340 O   0  0  0  0  0  0  0  0  0  0  0  0
   -3.1180   18.4870    0.9620 H   0  0  0  0  0  0  0  0  0  0  0  0
   -4.2490   17.3890    1.7870 H   0  0  0  0  0  0  0  0  0  0  0  0
   -2.8800   16.7280    0.9100 H   0  0  0  0  0  0  0  0  0  0  0  0
   -6.2690   18.3350    0.4920 H   0  0  0  0  0  0  0  0  0  0  0  0
   -6.1620   18.5480   -1.2520 H   0  0  0  0  0  0  0  0  0  0  0  0
   -5.1260   19.5070   -0.2080 H   0  0  0  0  0  0  0  0  0  0  0  0
   -2.7330   16.9300   -1.5670 H   0  0  0  0  0  0  0  0  0  0  0  0
   -4.0970   17.4930   -2.5330 H   0  0  0  0  0  0  0  0  0  0  0  0
   -3.1270   18.6430   -1.5910 H   0  0  0  0  0  0  0  0  0  0  0  0
  1 28  1  0  0  0  0
  1  2  1  0  0  0  0
  2  3  1  0  0  0  0
  3  4  2  0  0  0  0
  4 29  1  0  0  0  0
  4  5  1  0  0  0  0
  5  6  1  0  0  0  0
  6 13  1  0  0  0  0
  6  7  2  0  0  0  0
  7  8  1  0  0  0  0
  8  9  2  0  0  0  0
  9 10  1  0  0  0  0
  9 12  1  0  0  0  0
 10134  1  0  0  0  0
 10 11  2  0  0  0  0
 12 32  1  0  0  0  0
 13 33  1  0  0  0  0
 12 13  2  0  0  0  0
  5 14  2  0  0  0  0
 14 34  1  0  0  0  0
 14 15  1  0  0  0  0
 15 16  1  0  0  0  0
 16 24  1  0  0  0  0
 16 17  2  0  0  0  0
 17 18  1  0  0  0  0
 18 19  2  0  0  0  0
 19 23  1  0  0  0  0
 20 37  1  0  0  0  0
 19 20  1  0  0  0  0
 20 21  1  0  0  0  0
 21 39  1  0  0  0  0
 21 38  1  0  0  0  0
 22 54  1  0  0  0  0
 20 22  1  0  0  0  0
 23 24  2  0  0  0  0
 23 42  1  0  0  0  0
 24 43  1  0  0  0  0
  3 25  1  0  0  0  0
 15 25  2  0  0  0  0
  1 26  1  0  0  0  0
  1 27  1  0  0  0  0
  7 30  1  0  0  0  0
  8 31  1  0  0  0  0
 17 35  1  0  0  0  0
 18 36  1  0  0  0  0
 21 40  1  0  0  0  0
 22 41  1  0  0  0  0
 25 44  1  0  0  0  0
 45 70  1  0  0  0  0
 46 47  1  0  0  0  0
 45 46  1  0  0  0  0
 47 48  2  0  0  0  0
 48 49  1  0  0  0  0
 48 73  1  0  0  0  0
 49 50  1  0  0  0  0
 50 51  2  0  0  0  0
 51 74  1  0  0  0  0
 51 52  1  0  0  0  0
 52 75  1  0  0  0  0
 52 53  2  0  0  0  0
 53 54  1  0  0  0  0
 54 55  2  0  0  0  0
 53 56  1  0  0  0  0
 50 57  1  0  0  0  0
 56 57  2  0  0  0  0
 58 78  1  0  0  0  0
 49 58  2  0  0  0  0
 58 59  1  0  0  0  0
 59 60  1  0  0  0  0
 60 61  2  0  0  0  0
 61 79  1  0  0  0  0
 61 62  1  0  0  0  0
 62 80  1  0  0  0  0
 62 63  2  0  0  0  0
 63 64  1  0  0  0  0
 64 81  1  0  0  0  0
 65 82  1  0  0  0  0
 64 65  1  0  0  0  0
 64 66  1  0  0  0  0
 66 85  1  0  0  0  0
 67 68  2  0  0  0  0
 63 67  1  0  0  0  0
 60 68  1  0  0  0  0
 59 69  2  0  0  0  0
 47 69  1  0  0  0  0
 45 71  1  0  0  0  0
 45 72  1  0  0  0  0
 56 76  1  0  0  0  0
 57 77  1  0  0  0  0
 65 83  1  0  0  0  0
 65 84  1  0  0  0  0
 67 86  1  0  0  0  0
 68 87  1  0  0  0  0
 69 88  1  0  0  0  0
 89116  1  0  0  0  0
 89 90  1  0  0  0  0
 90 91  1  0  0  0  0
 91113  2  0  0  0  0
 91 92  1  0  0  0  0
 92 93  2  0  0  0  0
 93102  1  0  0  0  0
 93 94  1  0  0  0  0
 94101  1  0  0  0  0
 94 95  2  0  0  0  0
 95 96  1  0  0  0  0
 96 97  2  0  0  0  0
 97100  1  0  0  0  0
 97 98  1  0  0  0  0
 66 98  1  0  0  0  0
 98 99  2  0  0  0  0
100101  2  0  0  0  0
100120  1  0  0  0  0
101121  1  0  0  0  0
102103  2  0  0  0  0
102122  1  0  0  0  0
103104  1  0  0  0  0
104105  2  0  0  0  0
104112  1  0  0  0  0
105106  1  0  0  0  0
106124  1  0  0  0  0
106107  2  0  0  0  0
107108  1  0  0  0  0
108125  1  0  0  0  0
108109  1  0  0  0  0
109127  1  0  0  0  0
109126  1  0  0  0  0
109128  1  0  0  0  0
108110  1  0  0  0  0
107111  1  0  0  0  0
111130  1  0  0  0  0
111112  2  0  0  0  0
113132  1  0  0  0  0
103113  1  0  0  0  0
 89114  1  0  0  0  0
 89115  1  0  0  0  0
 92117  1  0  0  0  0
 95118  1  0  0  0  0
 96119  1  0  0  0  0
105123  1  0  0  0  0
110129  1  0  0  0  0
112131  1  0  0  0  0
133134  1  0  0  0  0
133136  1  0  0  0  0
133135  1  0  0  0  0
133137  1  0  0  0  0
138147  1  0  0  0  0
138145  1  0  0  0  0
138146  1  0  0  0  0
139142  1  0  0  0  0
139140  1  0  0  0  0
138139  1  0  0  0  0
140150  1  0  0  0  0
140148  1  0  0  0  0
141151  1  0  0  0  0
139141  1  0  0  0  0
110143  1  0  0  0  0
142143  1  0  0  0  0
143144  2  0  0  0  0
140149  1  0  0  0  0
141152  1  0  0  0  0
141153  1  0  0  0  0
M  END
> <atom.dprop.PartialCharge>
0.109410 -0.322060 0.122860 -0.138000 -0.015960 -0.003060 -0.134110 -0.073880 -0.130480 0.646070 -0.544110 -0.073880 -0.134110 -0.138870 -0.004020 -0.035640 -0.116950 -0.119710 -0.096370 0.150830 -0.108590 -0.572080 -0.119710 -0.116950 -0.192300 0.046390 0.046390 0.046390 0.155010 0.143920 0.153300 0.153300 0.143920 0.141190 0.137050 0.137300 0.086690 0.045260 0.045260 0.045260 0.313030 0.137300 0.137050 0.145120 0.112640 -0.325830 0.125580 -0.138020 -0.013250 -0.012550 -0.128380 -0.090470 -0.139410 0.675350 -0.608290 -0.090470 -0.128380 -0.142690 -0.001980 -0.033380 -0.117520 -0.120810 -0.096700 0.152130 -0.109380 -0.571340 -0.120810 -0.117520 -0.189110 0.045780 0.045780 0.045780 0.155690 0.140800 0.146650 0.146650 0.140800 0.138210 0.136290 0.136640 0.086210 0.045670 0.045670 0.045670 0.313050 0.136640 0.136290 0.143120 0.112480 -0.327340 0.123330 -0.140440 -0.012750 -0.013710 -0.128800 -0.092010 -0.139450 0.675350 -0.609290 -0.092010 -0.128800 -0.141150 -0.002410 -0.036100 -0.116700 -0.117940 -0.095040 0.161670 -0.114610 -0.558890 -0.117940 -0.116700 -0.191180 0.045740 0.045740 0.045740 0.153790 0.142840 0.148150 0.148150 0.142840 0.140150 0.139110 0.138250 0.085160 0.047260 0.047260 0.047260 0.328540 0.138250 0.139110 0.144210 0.126630 -0.435180 0.051670 0.051670 0.051670 -0.114480 0.188480 -0.114480 -0.114480 -0.450210 0.753120 -0.604910 0.051680 0.051680 0.051680 0.051680 0.051680 0.051680 0.051680 0.051680 0.051680

$$$$
