mom_tetramer.pdb
  -OEChem-08252518563D

197208  0     1  0  0  0  0  0999 V2000
   -2.6360    5.4620    0.8780 C   0  0  0  0  0  0  0  0  0  0  0  0
   -1.5020    4.6570    0.5850 O   0  0  0  0  0  0  0  0  0  0  0  0
   -1.7100    3.3120    0.4630 C   0  0  0  0  0  0  0  0  0  0  0  0
   -2.9210    2.6470    0.6280 C   0  0  0  0  0  0  0  0  0  0  0  0
   -2.9800    1.2550    0.4980 C   0  0  0  0  0  0  0  0  0  0  0  0
   -1.8340    0.4940    0.1960 C   0  0  0  0  0  0  0  0  0  0  0  0
   -1.9530   -0.9820    0.1240 C   0  0  0  0  0  0  0  0  0  0  0  0
   -2.8380   -1.5980   -0.7780 C   0  0  0  0  0  0  0  0  0  0  0  0
   -2.9320   -2.9960   -0.8570 C   0  0  0  0  0  0  0  0  0  0  0  0
   -3.9880   -3.5800   -1.7260 C   0  0  0  0  0  0  0  0  0  0  0  0
   -4.7370   -2.9160   -2.4230 O   0  0  0  0  0  0  0  0  0  0  0  0
   -2.1140   -3.7970   -0.0500 C   0  0  0  0  0  0  0  0  0  0  0  0
   -1.2330   -3.2010    0.8540 C   0  0  0  0  0  0  0  0  0  0  0  0
   -1.1690   -1.8130    0.9460 C   0  0  0  0  0  0  0  0  0  0  0  0
   -0.6020    1.1780   -0.0100 C   0  0  0  0  0  0  0  0  0  0  0  0
    0.6300    0.4720   -0.4110 C   0  0  0  0  0  0  0  0  0  0  0  0
    1.8160    0.5460    0.3440 C   0  0  0  0  0  0  0  0  0  0  0  0
    2.9430   -0.2320    0.0210 C   0  0  0  0  0  0  0  0  0  0  0  0
    4.2050   -0.1420    0.8520 C   0  0  1  0  0  0  0  0  0  0  0  0
    4.4870   -1.4330    1.6290 C   0  0  0  0  0  0  0  0  0  0  0  0
    5.4150    0.3220    0.1570 N   0  0  0  0  0  0  0  0  0  0  0  0
    2.8240   -1.1200   -1.0500 C   0  0  0  0  0  0  0  0  0  0  0  0
    1.6940   -1.1410   -1.8660 C   0  0  0  0  0  0  0  0  0  0  0  0
    0.6170   -0.3270   -1.5610 C   0  0  0  0  0  0  0  0  0  0  0  0
   -0.5670    2.5760    0.1430 C   0  0  0  0  0  0  0  0  0  0  0  0
   -3.0700    5.1980    1.8480 H   0  0  0  0  0  0  0  0  0  0  0  0
   -3.3820    5.3960    0.0790 H   0  0  0  0  0  0  0  0  0  0  0  0
   -2.3000    6.5020    0.9360 H   0  0  0  0  0  0  0  0  0  0  0  0
   -3.8380    3.1770    0.8650 H   0  0  0  0  0  0  0  0  0  0  0  0
   -3.9390    0.7590    0.6440 H   0  0  0  0  0  0  0  0  0  0  0  0
   -3.4660   -0.9840   -1.4230 H   0  0  0  0  0  0  0  0  0  0  0  0
   -2.1660   -4.8810   -0.0940 H   0  0  0  0  0  0  0  0  0  0  0  0
   -0.6070   -3.8220    1.4870 H   0  0  0  0  0  0  0  0  0  0  0  0
   -0.4760   -1.3710    1.6600 H   0  0  0  0  0  0  0  0  0  0  0  0
    1.8390    1.1910    1.2240 H   0  0  0  0  0  0  0  0  0  0  0  0
    4.0380    0.6380    1.6090 H   0  0  0  0  0  0  0  0  0  0  0  0
    5.3420   -1.2960    2.3010 H   0  0  0  0  0  0  0  0  0  0  0  0
    3.6250   -1.7230    2.2390 H   0  0  0  0  0  0  0  0  0  0  0  0
    4.7260   -2.2710    0.9640 H   0  0  0  0  0  0  0  0  0  0  0  0
    6.0420    0.7710    0.8020 H   0  0  0  0  0  0  0  0  0  0  0  0
    3.6370   -1.8130   -1.2870 H   0  0  0  0  0  0  0  0  0  0  0  0
    1.6740   -1.8030   -2.7210 H   0  0  0  0  0  0  0  0  0  0  0  0
   -0.2560   -0.3740   -2.1970 H   0  0  0  0  0  0  0  0  0  0  0  0
    0.3700    3.1100   -0.0060 H   0  0  0  0  0  0  0  0  0  0  0  0
   11.2660   -6.4520   -6.0400 C   0  0  0  0  0  0  0  0  0  0  0  0
   11.2530   -6.6100   -4.6270 O   0  0  0  0  0  0  0  0  0  0  0  0
   10.6830   -5.6060   -3.8950 C   0  0  0  0  0  0  0  0  0  0  0  0
   10.1360   -4.4320   -4.3990 C   0  0  0  0  0  0  0  0  0  0  0  0
    9.6160   -3.4690   -3.5270 C   0  0  0  0  0  0  0  0  0  0  0  0
    9.6250   -3.6520   -2.1290 C   0  0  0  0  0  0  0  0  0  0  0  0
    9.1420   -2.5470   -1.2620 C   0  0  0  0  0  0  0  0  0  0  0  0
    7.8620   -1.9880   -1.4210 C   0  0  0  0  0  0  0  0  0  0  0  0
    7.3990   -0.9470   -0.5870 C   0  0  0  0  0  0  0  0  0  0  0  0
    6.0230   -0.4260   -0.8410 C   0  0  0  0  0  0  0  0  0  0  0  0
    5.4950   -0.6920   -1.9140 O   0  0  0  0  0  0  0  0  0  0  0  0
    8.2160   -0.4880    0.4490 C   0  0  0  0  0  0  0  0  0  0  0  0
    9.4920   -1.0220    0.6140 C   0  0  0  0  0  0  0  0  0  0  0  0
    9.9540   -2.0210   -0.2440 C   0  0  0  0  0  0  0  0  0  0  0  0
   10.1460   -4.8800   -1.6240 C   0  0  0  0  0  0  0  0  0  0  0  0
   10.1000   -5.2100   -0.1750 C   0  0  0  0  0  0  0  0  0  0  0  0
   11.2750   -5.5010    0.5530 C   0  0  0  0  0  0  0  0  0  0  0  0
   11.2570   -5.6710    1.9490 C   0  0  0  0  0  0  0  0  0  0  0  0
   12.5360   -5.9860    2.7050 C   0  0  1  0  0  0  0  0  0  0  0  0
   12.9750   -4.8400    3.6210 C   0  0  0  0  0  0  0  0  0  0  0  0
   12.5680   -7.2650    3.4320 N   0  0  0  0  0  0  0  0  0  0  0  0
   10.0390   -5.4850    2.6070 C   0  0  0  0  0  0  0  0  0  0  0  0
    8.8520   -5.2950    1.9060 C   0  0  0  0  0  0  0  0  0  0  0  0
    8.8830   -5.1750    0.5230 C   0  0  0  0  0  0  0  0  0  0  0  0
   10.6690   -5.8240   -2.5160 C   0  0  0  0  0  0  0  0  0  0  0  0
   11.8390   -5.5680   -6.3370 H   0  0  0  0  0  0  0  0  0  0  0  0
   10.2480   -6.4170   -6.4400 H   0  0  0  0  0  0  0  0  0  0  0  0
   11.7630   -7.3280   -6.4690 H   0  0  0  0  0  0  0  0  0  0  0  0
   10.1070   -4.2230   -5.4630 H   0  0  0  0  0  0  0  0  0  0  0  0
    9.2160   -2.5480   -3.9510 H   0  0  0  0  0  0  0  0  0  0  0  0
    7.2020   -2.3810   -2.1940 H   0  0  0  0  0  0  0  0  0  0  0  0
    7.9020    0.2860    1.1380 H   0  0  0  0  0  0  0  0  0  0  0  0
   10.1310   -0.6620    1.4160 H   0  0  0  0  0  0  0  0  0  0  0  0
   10.9590   -2.4100   -0.0950 H   0  0  0  0  0  0  0  0  0  0  0  0
   12.2220   -5.5550    0.0140 H   0  0  0  0  0  0  0  0  0  0  0  0
   13.3320   -6.1030    1.9560 H   0  0  0  0  0  0  0  0  0  0  0  0
   13.9600   -5.0530    4.0510 H   0  0  0  0  0  0  0  0  0  0  0  0
   13.0440   -3.8940    3.0730 H   0  0  0  0  0  0  0  0  0  0  0  0
   12.2820   -4.6970    4.4570 H   0  0  0  0  0  0  0  0  0  0  0  0
   13.5090   -7.6120    3.5030 H   0  0  0  0  0  0  0  0  0  0  0  0
    9.9790   -5.5210    3.6920 H   0  0  0  0  0  0  0  0  0  0  0  0
    7.9060   -5.2430    2.4400 H   0  0  0  0  0  0  0  0  0  0  0  0
    7.9500   -5.0190   -0.0140 H   0  0  0  0  0  0  0  0  0  0  0  0
   11.0750   -6.7610   -2.1340 H   0  0  0  0  0  0  0  0  0  0  0  0
    7.7620   -8.4240   13.1380 C   0  0  0  0  0  0  0  0  0  0  0  0
    8.9310   -7.6260   13.0050 O   0  0  0  0  0  0  0  0  0  0  0  0
    9.6080   -7.7040   11.8190 C   0  0  0  0  0  0  0  0  0  0  0  0
    9.2730   -8.5010   10.7300 C   0  0  0  0  0  0  0  0  0  0  0  0
   10.0810   -8.5010    9.5860 C   0  0  0  0  0  0  0  0  0  0  0  0
   11.2410   -7.7060    9.4980 C   0  0  0  0  0  0  0  0  0  0  0  0
   12.1020   -7.8260    8.2930 C   0  0  0  0  0  0  0  0  0  0  0  0
   11.5910   -7.6230    7.0000 C   0  0  0  0  0  0  0  0  0  0  0  0
   12.4070   -7.7330    5.8540 C   0  0  0  0  0  0  0  0  0  0  0  0
   11.7570   -7.5080    4.5280 C   0  0  0  0  0  0  0  0  0  0  0  0
   10.5320   -7.5400    4.4820 O   0  0  0  0  0  0  0  0  0  0  0  0
   13.7680   -8.0030    6.0070 C   0  0  0  0  0  0  0  0  0  0  0  0
   14.2920   -8.2130    7.2810 C   0  0  0  0  0  0  0  0  0  0  0  0
   13.4640   -8.1460    8.4040 C   0  0  0  0  0  0  0  0  0  0  0  0
   11.5530   -6.8500   10.5930 C   0  0  0  0  0  0  0  0  0  0  0  0
   12.6870   -5.9040   10.5560 C   0  0  0  0  0  0  0  0  0  0  0  0
   13.7150   -5.9410   11.5170 C   0  0  0  0  0  0  0  0  0  0  0  0
   14.8570   -5.1320   11.3990 C   0  0  0  0  0  0  0  0  0  0  0  0
   15.9600   -5.1960   12.4380 C   0  0  1  0  0  0  0  0  0  0  0  0
   17.2510   -5.8050   11.8820 C   0  0  0  0  0  0  0  0  0  0  0  0
   16.2440   -3.9510   13.1660 N   0  0  0  0  0  0  0  0  0  0  0  0
   14.9670   -4.3270   10.2590 C   0  0  0  0  0  0  0  0  0  0  0  0
   13.9230   -4.2000    9.3520 C   0  0  0  0  0  0  0  0  0  0  0  0
   12.7820   -4.9700    9.5140 C   0  0  0  0  0  0  0  0  0  0  0  0
   10.7340   -6.8840   11.7400 C   0  0  0  0  0  0  0  0  0  0  0  0
    7.9990   -9.4900   13.0610 H   0  0  0  0  0  0  0  0  0  0  0  0
    7.0020   -8.1320   12.4060 H   0  0  0  0  0  0  0  0  0  0  0  0
    7.3510   -8.2450   14.1360 H   0  0  0  0  0  0  0  0  0  0  0  0
    8.3980   -9.1430   10.7350 H   0  0  0  0  0  0  0  0  0  0  0  0
    9.8050   -9.1500    8.7560 H   0  0  0  0  0  0  0  0  0  0  0  0
   10.5410   -7.3540    6.8810 H   0  0  0  0  0  0  0  0  0  0  0  0
   14.4460   -8.0700    5.1660 H   0  0  0  0  0  0  0  0  0  0  0  0
   15.3500   -8.4320    7.4030 H   0  0  0  0  0  0  0  0  0  0  0  0
   13.9010   -8.3280    9.3840 H   0  0  0  0  0  0  0  0  0  0  0  0
   13.6350   -6.6420   12.3480 H   0  0  0  0  0  0  0  0  0  0  0  0
   15.6170   -5.8760   13.2310 H   0  0  0  0  0  0  0  0  0  0  0  0
   17.9940   -5.9220   12.6800 H   0  0  0  0  0  0  0  0  0  0  0  0
   17.0670   -6.7920   11.4460 H   0  0  0  0  0  0  0  0  0  0  0  0
   17.7010   -5.1730   11.1080 H   0  0  0  0  0  0  0  0  0  0  0  0
   16.5940   -4.1470   14.0880 H   0  0  0  0  0  0  0  0  0  0  0  0
   15.8680   -3.7460   10.0700 H   0  0  0  0  0  0  0  0  0  0  0  0
   14.0030   -3.5010    8.5210 H   0  0  0  0  0  0  0  0  0  0  0  0
   11.9730   -4.8700    8.7900 H   0  0  0  0  0  0  0  0  0  0  0  0
   10.9680   -6.2420   12.5880 H   0  0  0  0  0  0  0  0  0  0  0  0
   22.2940    3.9620    8.8000 C   0  0  0  0  0  0  0  0  0  0  0  0
   22.8840    2.7210    9.1640 O   0  0  0  0  0  0  0  0  0  0  0  0
   22.1280    1.8710    9.9230 C   0  0  0  0  0  0  0  0  0  0  0  0
   20.8230    2.0880   10.3490 C   0  0  0  0  0  0  0  0  0  0  0  0
   20.1770    1.1320   11.1440 C   0  0  0  0  0  0  0  0  0  0  0  0
   20.8160   -0.0610   11.5360 C   0  0  0  0  0  0  0  0  0  0  0  0
   20.0980   -0.9960   12.4380 C   0  0  0  0  0  0  0  0  0  0  0  0
   18.8230   -1.4900   12.1220 C   0  0  0  0  0  0  0  0  0  0  0  0
   18.1420   -2.3830   12.9760 C   0  0  0  0  0  0  0  0  0  0  0  0
   16.7880   -2.8390   12.5430 C   0  0  0  0  0  0  0  0  0  0  0  0
   16.2330   -2.2180   11.6560 O   0  0  0  0  0  0  0  0  0  0  0  0
   18.7690   -2.8250   14.1430 C   0  0  0  0  0  0  0  0  0  0  0  0
   20.0310   -2.3420   14.4760 C   0  0  0  0  0  0  0  0  0  0  0  0
   20.6760   -1.4210   13.6470 C   0  0  0  0  0  0  0  0  0  0  0  0
   22.1370   -0.3000   11.0650 C   0  0  0  0  0  0  0  0  0  0  0  0
   22.8600   -1.5610   11.3310 C   0  0  0  0  0  0  0  0  0  0  0  0
   24.0990   -1.5780   12.0130 C   0  0  0  0  0  0  0  0  0  0  0  0
   24.7570   -2.7840   12.3150 C   0  0  0  0  0  0  0  0  0  0  0  0
   26.0770   -2.7970   13.0890 C   0  0  1  0  0  0  0  0  0  0  0  0
   25.8760   -3.1150   14.5720 C   0  0  0  0  0  0  0  0  0  0  0  0
   27.1140   -3.6180   12.4580 N   0  0  0  0  0  0  0  0  0  0  0  0
   24.1250   -3.9700   11.9170 C   0  0  0  0  0  0  0  0  0  0  0  0
   22.9190   -3.9800   11.2230 C   0  0  0  0  0  0  0  0  0  0  0  0
   22.2970   -2.7800   10.9220 C   0  0  0  0  0  0  0  0  0  0  0  0
   22.7680    0.6810   10.2740 C   0  0  0  0  0  0  0  0  0  0  0  0
   22.0460    4.5580    9.6840 H   0  0  0  0  0  0  0  0  0  0  0  0
   21.4150    3.8090    8.1650 H   0  0  0  0  0  0  0  0  0  0  0  0
   23.0320    4.5220    8.2170 H   0  0  0  0  0  0  0  0  0  0  0  0
   20.2770    2.9880   10.0900 H   0  0  0  0  0  0  0  0  0  0  0  0
   19.1600    1.3370   11.4760 H   0  0  0  0  0  0  0  0  0  0  0  0
   18.3550   -1.1930   11.1830 H   0  0  0  0  0  0  0  0  0  0  0  0
   18.3060   -3.5340   14.8190 H   0  0  0  0  0  0  0  0  0  0  0  0
   20.5200   -2.6770   15.3870 H   0  0  0  0  0  0  0  0  0  0  0  0
   21.6530   -1.0510   13.9410 H   0  0  0  0  0  0  0  0  0  0  0  0
   24.5390   -0.6320   12.3250 H   0  0  0  0  0  0  0  0  0  0  0  0
   26.4930   -1.7820   13.0390 H   0  0  0  0  0  0  0  0  0  0  0  0
   26.8420   -3.1740   15.0860 H   0  0  0  0  0  0  0  0  0  0  0  0
   25.2690   -2.3480   15.0620 H   0  0  0  0  0  0  0  0  0  0  0  0
   25.3530   -4.0620   14.7320 H   0  0  0  0  0  0  0  0  0  0  0  0
   27.8540   -3.1540   11.9500 H   0  0  0  0  0  0  0  0  0  0  0  0
   24.5680   -4.9270   12.1360 H   0  0  0  0  0  0  0  0  0  0  0  0
   22.4690   -4.9230   10.9260 H   0  0  0  0  0  0  0  0  0  0  0  0
   21.3530   -2.7990   10.3820 H   0  0  0  0  0  0  0  0  0  0  0  0
   23.7780    0.5080    9.9040 H   0  0  0  0  0  0  0  0  0  0  0  0
   -5.3950   -5.4490   -1.6850 C   0  0  0  0  0  0  0  0  0  0  0  0
   -4.0930   -4.9080   -1.4740 O   0  0  0  0  0  0  0  0  0  0  0  0
   -5.9890   -5.2410   -0.7900 H   0  0  0  0  0  0  0  0  0  0  0  0
   -5.3050   -6.5320   -1.7950 H   0  0  0  0  0  0  0  0  0  0  0  0
   -5.8910   -5.0430   -2.5710 H   0  0  0  0  0  0  0  0  0  0  0  0
   25.8240   -7.0860   15.0160 C   0  0  0  0  0  0  0  0  0  0  0  0
   26.3220   -6.9730   13.5690 C   0  0  0  0  0  0  0  0  0  0  0  0
   27.6280   -7.7550   13.4300 C   0  0  0  0  0  0  0  0  0  0  0  0
   25.2360   -7.4950   12.6280 C   0  0  0  0  0  0  0  0  0  0  0  0
   26.4890   -5.5530   13.3800 O   0  0  0  0  0  0  0  0  0  0  0  0
   27.1390   -4.9780   12.3540 C   0  0  0  0  0  0  0  0  0  0  0  0
   27.7240   -5.5600   11.4540 O   0  0  0  0  0  0  0  0  0  0  0  0
   25.6300   -8.1190   15.3040 H   0  0  0  0  0  0  0  0  0  0  0  0
   26.5550   -6.6570   15.7150 H   0  0  0  0  0  0  0  0  0  0  0  0
   24.8990   -6.5050   15.1570 H   0  0  0  0  0  0  0  0  0  0  0  0
   28.4110   -7.3230   14.0620 H   0  0  0  0  0  0  0  0  0  0  0  0
   28.0050   -7.7430   12.4030 H   0  0  0  0  0  0  0  0  0  0  0  0
   27.4900   -8.8040   13.7100 H   0  0  0  0  0  0  0  0  0  0  0  0
   24.3000   -6.9440   12.7740 H   0  0  0  0  0  0  0  0  0  0  0  0
   25.5200   -7.3590   11.5790 H   0  0  0  0  0  0  0  0  0  0  0  0
   25.0230   -8.5520   12.8020 H   0  0  0  0  0  0  0  0  0  0  0  0
  1 28  1  0  0  0  0
  1 26  1  0  0  0  0
  1  2  1  0  0  0  0
  2  3  1  0  0  0  0
  3  4  2  0  0  0  0
  4 29  1  0  0  0  0
  4  5  1  0  0  0  0
  5 30  1  0  0  0  0
  5  6  2  0  0  0  0
  6  7  1  0  0  0  0
  7 14  1  0  0  0  0
  7  8  2  0  0  0  0
  8  9  1  0  0  0  0
  9 12  2  0  0  0  0
 10178  1  0  0  0  0
  9 10  1  0  0  0  0
 10 11  2  0  0  0  0
 12 13  1  0  0  0  0
 13 14  2  0  0  0  0
 13 33  1  0  0  0  0
 14 34  1  0  0  0  0
 15 25  2  0  0  0  0
  6 15  1  0  0  0  0
 15 16  1  0  0  0  0
 16 17  2  0  0  0  0
 17 35  1  0  0  0  0
 17 18  1  0  0  0  0
 18 19  1  0  0  0  0
 19 36  1  0  0  0  0
 19 20  1  0  0  0  0
 20 38  1  0  0  0  0
 20 37  1  0  0  0  0
 21 40  1  0  0  0  0
 19 21  1  0  0  0  0
 18 22  2  0  0  0  0
 23 24  2  0  0  0  0
 22 23  1  0  0  0  0
 16 24  1  0  0  0  0
  3 25  1  0  0  0  0
  1 27  1  0  0  0  0
  8 31  1  0  0  0  0
 12 32  1  0  0  0  0
 20 39  1  0  0  0  0
 22 41  1  0  0  0  0
 23 42  1  0  0  0  0
 24 43  1  0  0  0  0
 25 44  1  0  0  0  0
 45 46  1  0  0  0  0
 46 47  1  0  0  0  0
 47 69  2  0  0  0  0
 47 48  1  0  0  0  0
 48 49  2  0  0  0  0
 49 50  1  0  0  0  0
 50 59  2  0  0  0  0
 50 51  1  0  0  0  0
 51 58  1  0  0  0  0
 51 52  2  0  0  0  0
 52 53  1  0  0  0  0
 53 56  2  0  0  0  0
 53 54  1  0  0  0  0
 21 54  1  0  0  0  0
 54 55  2  0  0  0  0
 56 57  1  0  0  0  0
 56 76  1  0  0  0  0
 57 77  1  0  0  0  0
 58 78  1  0  0  0  0
 57 58  2  0  0  0  0
 59 60  1  0  0  0  0
 60 68  1  0  0  0  0
 60 61  2  0  0  0  0
 61 62  1  0  0  0  0
 62 66  2  0  0  0  0
 62 63  1  0  0  0  0
 63 80  1  0  0  0  0
 63 65  1  0  0  0  0
 63 64  1  0  0  0  0
 64 81  1  0  0  0  0
 64 83  1  0  0  0  0
 65 84  1  0  0  0  0
 65 98  1  0  0  0  0
 66 85  1  0  0  0  0
 67 86  1  0  0  0  0
 66 67  1  0  0  0  0
 67 68  2  0  0  0  0
 69 88  1  0  0  0  0
 59 69  1  0  0  0  0
 45 70  1  0  0  0  0
 45 71  1  0  0  0  0
 45 72  1  0  0  0  0
 48 73  1  0  0  0  0
 49 74  1  0  0  0  0
 52 75  1  0  0  0  0
 61 79  1  0  0  0  0
 64 82  1  0  0  0  0
 68 87  1  0  0  0  0
 89116  1  0  0  0  0
 89 90  1  0  0  0  0
 90 91  1  0  0  0  0
 92117  1  0  0  0  0
 91 92  2  0  0  0  0
 92 93  1  0  0  0  0
 93 94  2  0  0  0  0
 94103  1  0  0  0  0
 95102  1  0  0  0  0
 94 95  1  0  0  0  0
 95 96  2  0  0  0  0
 97100  2  0  0  0  0
 96 97  1  0  0  0  0
 97 98  1  0  0  0  0
 98 99  2  0  0  0  0
100101  1  0  0  0  0
101121  1  0  0  0  0
101102  2  0  0  0  0
102122  1  0  0  0  0
103113  2  0  0  0  0
103104  1  0  0  0  0
104105  2  0  0  0  0
105123  1  0  0  0  0
105106  1  0  0  0  0
106107  1  0  0  0  0
107109  1  0  0  0  0
107124  1  0  0  0  0
107108  1  0  0  0  0
108125  1  0  0  0  0
109128  1  0  0  0  0
106110  2  0  0  0  0
111112  2  0  0  0  0
110111  1  0  0  0  0
104112  1  0  0  0  0
 91113  1  0  0  0  0
113132  1  0  0  0  0
 89114  1  0  0  0  0
 89115  1  0  0  0  0
 93118  1  0  0  0  0
 96119  1  0  0  0  0
100120  1  0  0  0  0
108126  1  0  0  0  0
108127  1  0  0  0  0
110129  1  0  0  0  0
111130  1  0  0  0  0
112131  1  0  0  0  0
133134  1  0  0  0  0
133158  1  0  0  0  0
134135  1  0  0  0  0
135157  2  0  0  0  0
135136  1  0  0  0  0
136137  2  0  0  0  0
137162  1  0  0  0  0
137138  1  0  0  0  0
138139  1  0  0  0  0
139146  1  0  0  0  0
139140  2  0  0  0  0
140141  1  0  0  0  0
141144  2  0  0  0  0
141142  1  0  0  0  0
109142  1  0  0  0  0
142143  2  0  0  0  0
144145  1  0  0  0  0
144164  1  0  0  0  0
145165  1  0  0  0  0
146166  1  0  0  0  0
145146  2  0  0  0  0
147148  1  0  0  0  0
138147  2  0  0  0  0
148149  2  0  0  0  0
149150  1  0  0  0  0
149167  1  0  0  0  0
150151  1  0  0  0  0
151168  1  0  0  0  0
151152  1  0  0  0  0
152171  1  0  0  0  0
152170  1  0  0  0  0
152169  1  0  0  0  0
151153  1  0  0  0  0
154173  1  0  0  0  0
150154  2  0  0  0  0
154155  1  0  0  0  0
155156  2  0  0  0  0
148156  1  0  0  0  0
147157  1  0  0  0  0
133159  1  0  0  0  0
133160  1  0  0  0  0
136161  1  0  0  0  0
140163  1  0  0  0  0
153172  1  0  0  0  0
155174  1  0  0  0  0
156175  1  0  0  0  0
157176  1  0  0  0  0
177178  1  0  0  0  0
177179  1  0  0  0  0
177180  1  0  0  0  0
177181  1  0  0  0  0
182191  1  0  0  0  0
182189  1  0  0  0  0
182190  1  0  0  0  0
182183  1  0  0  0  0
183184  1  0  0  0  0
184194  1  0  0  0  0
184192  1  0  0  0  0
185195  1  0  0  0  0
185197  1  0  0  0  0
183185  1  0  0  0  0
183186  1  0  0  0  0
153187  1  0  0  0  0
186187  1  0  0  0  0
187188  2  0  0  0  0
184193  1  0  0  0  0
185196  1  0  0  0  0
M  END
> <atom.dprop.PartialCharge>
0.107660 -0.318460 0.122370 -0.202250 -0.083710 -0.071360 -0.045720 -0.058620 -0.128710 0.646170 -0.534770 -0.074120 -0.147070 -0.086880 0.008360 -0.045230 -0.095060 -0.091230 0.150520 -0.115150 -0.562700 -0.115620 -0.136420 -0.110370 -0.144880 0.044980 0.044980 0.044980 0.141790 0.140540 0.159380 0.150110 0.137940 0.139530 0.143580 0.083940 0.047830 0.047830 0.047830 0.314900 0.136430 0.127220 0.134530 0.157880 0.112040 -0.325590 0.126670 -0.204360 -0.085060 -0.065470 -0.047900 -0.081490 -0.138880 0.676530 -0.610400 -0.074140 -0.149260 -0.108370 0.010000 -0.047930 -0.096820 -0.106920 0.155330 -0.117970 -0.560770 -0.109160 -0.142500 -0.116500 -0.144570 0.045740 0.045740 0.045740 0.139360 0.135800 0.151420 0.158940 0.132770 0.136220 0.137630 0.078970 0.052850 0.052850 0.052850 0.310740 0.142050 0.130350 0.138660 0.156340 0.112140 -0.324950 0.124740 -0.204290 -0.087940 -0.064470 -0.050000 -0.087360 -0.140370 0.688900 -0.623340 -0.073190 -0.138180 -0.095340 0.007210 -0.044360 -0.091760 -0.110440 0.146240 -0.101980 -0.565650 -0.117150 -0.131220 -0.107360 -0.143960 0.045160 0.045160 0.045160 0.138850 0.135150 0.142650 0.157420 0.142930 0.138330 0.143300 0.088080 0.043950 0.043950 0.043950 0.305380 0.127070 0.132740 0.136510 0.156280 0.113630 -0.325660 0.123180 -0.152400 -0.075210 -0.054650 -0.042640 -0.059960 -0.149530 0.678920 -0.601420 -0.104470 -0.146010 -0.095310 0.004730 -0.039910 -0.105850 -0.102300 0.165130 -0.115880 -0.560360 -0.109270 -0.132760 -0.110420 -0.199070 0.043830 0.043830 0.043830 0.150660 0.142040 0.183580 0.132310 0.133780 0.136870 0.141840 0.082060 0.046560 0.046560 0.046560 0.343190 0.137920 0.133590 0.136170 0.141470 0.126440 -0.439350 0.050690 0.050690 0.050690 -0.113110 0.186540 -0.113110 -0.113110 -0.437700 0.748950 -0.614510 0.050590 0.050590 0.050590 0.050590 0.050590 0.050590 0.050590 0.050590 0.050590

$$$$
