mom_tetramer.pdb
 OpenBabel07222512403D

197208  0  0  1  0  0  0  0  0999 V2000
   -2.6540    5.4530    0.8840 C   0  0  0  0  0  0  0  0  0  0  0  0
   -1.5190    4.6500    0.5880 O   0  0  0  0  0  0  0  0  0  0  0  0
   -1.7230    3.3030    0.4730 C   0  0  0  0  0  0  0  0  0  0  0  0
   -2.9320    2.6370    0.6340 C   0  0  0  0  0  0  0  0  0  0  0  0
   -2.9880    1.2440    0.5040 C   0  0  0  0  0  0  0  0  0  0  0  0
   -1.8400    0.4830    0.2020 C   0  0  0  0  0  0  0  0  0  0  0  0
   -1.9580   -0.9950    0.1210 C   0  0  0  0  0  0  0  0  0  0  0  0
   -2.8510   -1.6100   -0.7710 C   0  0  0  0  0  0  0  0  0  0  0  0
   -2.9360   -3.0100   -0.8620 C   0  0  0  0  0  0  0  0  0  0  0  0
   -3.9940   -3.5940   -1.7280 C   0  0  0  0  0  0  0  0  0  0  0  0
   -4.7500   -2.9290   -2.4180 O   0  0  0  0  0  0  0  0  0  0  0  0
   -2.1030   -3.8110   -0.0700 C   0  0  0  0  0  0  0  0  0  0  0  0
   -1.2200   -3.2180    0.8270 C   0  0  0  0  0  0  0  0  0  0  0  0
   -1.1620   -1.8270    0.9310 C   0  0  0  0  0  0  0  0  0  0  0  0
   -0.6140    1.1730   -0.0020 C   0  0  0  0  0  0  0  0  0  0  0  0
    0.6250    0.4770   -0.4200 C   0  0  0  0  0  0  0  0  0  0  0  0
    1.7990    0.5380    0.3530 C   0  0  0  0  0  0  0  0  0  0  0  0
    2.9380   -0.2300    0.0310 C   0  0  0  0  0  0  0  0  0  0  0  0
    4.2060   -0.1350    0.8540 C   0  0  1  0  0  0  0  0  0  0  0  0
    4.4950   -1.4190    1.6390 C   0  0  0  0  0  0  0  0  0  0  0  0
    5.4110    0.3200    0.1410 N   0  0  0  0  0  0  0  0  0  0  0  0
    2.8270   -1.1220   -1.0460 C   0  0  0  0  0  0  0  0  0  0  0  0
    1.7130   -1.1320   -1.8710 C   0  0  0  0  0  0  0  0  0  0  0  0
    0.6250   -0.3220   -1.5710 C   0  0  0  0  0  0  0  0  0  0  0  0
   -0.5850    2.5760    0.1600 C   0  0  0  0  0  0  0  0  0  0  0  0
   -3.0870    5.1840    1.8530 H   0  0  0  0  0  0  0  0  0  0  0  0
   -3.3990    5.3910    0.0850 H   0  0  0  0  0  0  0  0  0  0  0  0
   -2.3180    6.4930    0.9480 H   0  0  0  0  0  0  0  0  0  0  0  0
   -3.8510    3.1650    0.8670 H   0  0  0  0  0  0  0  0  0  0  0  0
   -3.9460    0.7470    0.6530 H   0  0  0  0  0  0  0  0  0  0  0  0
   -3.4920   -0.9970   -1.4040 H   0  0  0  0  0  0  0  0  0  0  0  0
   -2.1470   -4.8950   -0.1250 H   0  0  0  0  0  0  0  0  0  0  0  0
   -0.5790   -3.8370    1.4500 H   0  0  0  0  0  0  0  0  0  0  0  0
   -0.4650   -1.3870    1.6420 H   0  0  0  0  0  0  0  0  0  0  0  0
    1.8240    1.1730    1.2460 H   0  0  0  0  0  0  0  0  0  0  0  0
    4.0470    0.6540    1.6030 H   0  0  0  0  0  0  0  0  0  0  0  0
    5.3590   -1.2760    2.3000 H   0  0  0  0  0  0  0  0  0  0  0  0
    3.6400   -1.7050    2.2600 H   0  0  0  0  0  0  0  0  0  0  0  0
    4.7290   -2.2580    0.9760 H   0  0  0  0  0  0  0  0  0  0  0  0
    6.0360    0.7980    0.7660 H   0  0  0  0  0  0  0  0  0  0  0  0
    3.6360   -1.8050   -1.2830 H   0  0  0  0  0  0  0  0  0  0  0  0
    1.6940   -1.7710   -2.7460 H   0  0  0  0  0  0  0  0  0  0  0  0
   -0.2490   -0.3530   -2.2170 H   0  0  0  0  0  0  0  0  0  0  0  0
    0.3570    3.1050    0.0040 H   0  0  0  0  0  0  0  0  0  0  0  0
   11.2600   -6.4640   -6.0330 C   0  0  0  0  0  0  0  0  0  0  0  0
   11.2510   -6.6210   -4.6200 O   0  0  0  0  0  0  0  0  0  0  0  0
   10.6900   -5.6100   -3.8880 C   0  0  0  0  0  0  0  0  0  0  0  0
   10.1340   -4.4420   -4.3950 C   0  0  0  0  0  0  0  0  0  0  0  0
    9.6190   -3.4740   -3.5250 C   0  0  0  0  0  0  0  0  0  0  0  0
    9.6420   -3.6460   -2.1270 C   0  0  0  0  0  0  0  0  0  0  0  0
    9.1540   -2.5400   -1.2620 C   0  0  0  0  0  0  0  0  0  0  0  0
    7.8700   -1.9910   -1.4210 C   0  0  0  0  0  0  0  0  0  0  0  0
    7.4020   -0.9470   -0.5940 C   0  0  0  0  0  0  0  0  0  0  0  0
    6.0200   -0.4400   -0.8460 C   0  0  0  0  0  0  0  0  0  0  0  0
    5.4910   -0.7280   -1.9130 O   0  0  0  0  0  0  0  0  0  0  0  0
    8.2170   -0.4720    0.4340 C   0  0  0  0  0  0  0  0  0  0  0  0
    9.4960   -0.9970    0.6020 C   0  0  0  0  0  0  0  0  0  0  0  0
    9.9630   -2.0020   -0.2480 C   0  0  0  0  0  0  0  0  0  0  0  0
   10.1620   -4.8670   -1.6100 C   0  0  0  0  0  0  0  0  0  0  0  0
   10.1210   -5.1940   -0.1680 C   0  0  0  0  0  0  0  0  0  0  0  0
   11.2900   -5.4910    0.5580 C   0  0  0  0  0  0  0  0  0  0  0  0
   11.2550   -5.6850    1.9530 C   0  0  0  0  0  0  0  0  0  0  0  0
   12.5290   -5.9940    2.7160 C   0  0  1  0  0  0  0  0  0  0  0  0
   12.9630   -4.8410    3.6260 C   0  0  0  0  0  0  0  0  0  0  0  0
   12.5630   -7.2710    3.4450 N   0  0  0  0  0  0  0  0  0  0  0  0
   10.0270   -5.5130    2.6030 C   0  0  0  0  0  0  0  0  0  0  0  0
    8.8490   -5.3150    1.8940 C   0  0  0  0  0  0  0  0  0  0  0  0
    8.8950   -5.1730    0.5140 C   0  0  0  0  0  0  0  0  0  0  0  0
   10.6930   -5.8170   -2.5070 C   0  0  0  0  0  0  0  0  0  0  0  0
   11.8440   -5.5870   -6.3310 H   0  0  0  0  0  0  0  0  0  0  0  0
   10.2400   -6.4150   -6.4300 H   0  0  0  0  0  0  0  0  0  0  0  0
   11.7430   -7.3470   -6.4640 H   0  0  0  0  0  0  0  0  0  0  0  0
   10.0910   -4.2410   -5.4600 H   0  0  0  0  0  0  0  0  0  0  0  0
    9.2050   -2.5610   -3.9520 H   0  0  0  0  0  0  0  0  0  0  0  0
    7.2100   -2.3960   -2.1890 H   0  0  0  0  0  0  0  0  0  0  0  0
    7.8990    0.3060    1.1170 H   0  0  0  0  0  0  0  0  0  0  0  0
   10.1350   -0.6270    1.3990 H   0  0  0  0  0  0  0  0  0  0  0  0
   10.9710   -2.3840   -0.0970 H   0  0  0  0  0  0  0  0  0  0  0  0
   12.2420   -5.5380    0.0330 H   0  0  0  0  0  0  0  0  0  0  0  0
   13.3300   -6.1130    1.9720 H   0  0  0  0  0  0  0  0  0  0  0  0
   13.9470   -5.0500    4.0640 H   0  0  0  0  0  0  0  0  0  0  0  0
   13.0360   -3.9010    3.0690 H   0  0  0  0  0  0  0  0  0  0  0  0
   12.2640   -4.6910    4.4560 H   0  0  0  0  0  0  0  0  0  0  0  0
   13.5050   -7.6170    3.5170 H   0  0  0  0  0  0  0  0  0  0  0  0
    9.9600   -5.5580    3.6860 H   0  0  0  0  0  0  0  0  0  0  0  0
    7.9010   -5.2620    2.4210 H   0  0  0  0  0  0  0  0  0  0  0  0
    7.9690   -5.0010   -0.0280 H   0  0  0  0  0  0  0  0  0  0  0  0
   11.1000   -6.7520   -2.1240 H   0  0  0  0  0  0  0  0  0  0  0  0
    7.7570   -8.4200   13.1450 C   0  0  0  0  0  0  0  0  0  0  0  0
    8.9340   -7.6310   13.0230 O   0  0  0  0  0  0  0  0  0  0  0  0
    9.6100   -7.7050   11.8360 C   0  0  0  0  0  0  0  0  0  0  0  0
    9.2730   -8.4990   10.7460 C   0  0  0  0  0  0  0  0  0  0  0  0
   10.0790   -8.4990    9.6020 C   0  0  0  0  0  0  0  0  0  0  0  0
   11.2390   -7.7050    9.5120 C   0  0  0  0  0  0  0  0  0  0  0  0
   12.0980   -7.8240    8.3060 C   0  0  0  0  0  0  0  0  0  0  0  0
   11.5850   -7.6300    7.0130 C   0  0  0  0  0  0  0  0  0  0  0  0
   12.4020   -7.7350    5.8670 C   0  0  0  0  0  0  0  0  0  0  0  0
   11.7520   -7.5170    4.5410 C   0  0  0  0  0  0  0  0  0  0  0  0
   10.5280   -7.5580    4.4920 O   0  0  0  0  0  0  0  0  0  0  0  0
   13.7660   -7.9940    6.0210 C   0  0  0  0  0  0  0  0  0  0  0  0
   14.2910   -8.1970    7.2940 C   0  0  0  0  0  0  0  0  0  0  0  0
   13.4630   -8.1350    8.4170 C   0  0  0  0  0  0  0  0  0  0  0  0
   11.5520   -6.8490   10.6060 C   0  0  0  0  0  0  0  0  0  0  0  0
   12.6830   -5.9030   10.5600 C   0  0  0  0  0  0  0  0  0  0  0  0
   13.7210   -5.9430   11.5130 C   0  0  0  0  0  0  0  0  0  0  0  0
   14.8670   -5.1350   11.3860 C   0  0  0  0  0  0  0  0  0  0  0  0
   15.9760   -5.2020   12.4140 C   0  0  1  0  0  0  0  0  0  0  0  0
   17.2680   -5.7990   11.8500 C   0  0  0  0  0  0  0  0  0  0  0  0
   16.2680   -3.9660   13.1530 N   0  0  0  0  0  0  0  0  0  0  0  0
   14.9710   -4.3250   10.2490 C   0  0  0  0  0  0  0  0  0  0  0  0
   13.9150   -4.1940    9.3550 C   0  0  0  0  0  0  0  0  0  0  0  0
   12.7720   -4.9640    9.5220 C   0  0  0  0  0  0  0  0  0  0  0  0
   10.7380   -6.8840   11.7560 C   0  0  0  0  0  0  0  0  0  0  0  0
    7.9820   -9.4870   13.0510 H   0  0  0  0  0  0  0  0  0  0  0  0
    6.9990   -8.1080   12.4200 H   0  0  0  0  0  0  0  0  0  0  0  0
    7.3490   -8.2550   14.1470 H   0  0  0  0  0  0  0  0  0  0  0  0
    8.3990   -9.1410   10.7530 H   0  0  0  0  0  0  0  0  0  0  0  0
    9.8010   -9.1480    8.7720 H   0  0  0  0  0  0  0  0  0  0  0  0
   10.5320   -7.3700    6.8920 H   0  0  0  0  0  0  0  0  0  0  0  0
   14.4450   -8.0550    5.1800 H   0  0  0  0  0  0  0  0  0  0  0  0
   15.3510   -8.4040    7.4170 H   0  0  0  0  0  0  0  0  0  0  0  0
   13.9020   -8.3110    9.3970 H   0  0  0  0  0  0  0  0  0  0  0  0
   13.6510   -6.6490   12.3400 H   0  0  0  0  0  0  0  0  0  0  0  0
   15.6410   -5.8900   13.2030 H   0  0  0  0  0  0  0  0  0  0  0  0
   18.0070   -5.9310   12.6500 H   0  0  0  0  0  0  0  0  0  0  0  0
   17.0880   -6.7770   11.3940 H   0  0  0  0  0  0  0  0  0  0  0  0
   17.7220   -5.1490   11.0950 H   0  0  0  0  0  0  0  0  0  0  0  0
   16.6820   -4.1940   14.0380 H   0  0  0  0  0  0  0  0  0  0  0  0
   15.8690   -3.7480   10.0570 H   0  0  0  0  0  0  0  0  0  0  0  0
   13.9910   -3.4950    8.5270 H   0  0  0  0  0  0  0  0  0  0  0  0
   11.9610   -4.8620    8.8070 H   0  0  0  0  0  0  0  0  0  0  0  0
   10.9740   -6.2440   12.6050 H   0  0  0  0  0  0  0  0  0  0  0  0
   22.3030    3.9660    8.7900 C   0  0  0  0  0  0  0  0  0  0  0  0
   22.9030    2.7420    9.1920 O   0  0  0  0  0  0  0  0  0  0  0  0
   22.1390    1.8900    9.9400 C   0  0  0  0  0  0  0  0  0  0  0  0
   20.8330    2.1080   10.3610 C   0  0  0  0  0  0  0  0  0  0  0  0
   20.1800    1.1500   11.1460 C   0  0  0  0  0  0  0  0  0  0  0  0
   20.8120   -0.0480   11.5350 C   0  0  0  0  0  0  0  0  0  0  0  0
   20.0920   -0.9820   12.4370 C   0  0  0  0  0  0  0  0  0  0  0  0
   18.8190   -1.4800   12.1170 C   0  0  0  0  0  0  0  0  0  0  0  0
   18.1370   -2.3720   12.9700 C   0  0  0  0  0  0  0  0  0  0  0  0
   16.7840   -2.8360   12.5360 C   0  0  0  0  0  0  0  0  0  0  0  0
   16.2170   -2.2110   11.6500 O   0  0  0  0  0  0  0  0  0  0  0  0
   18.7650   -2.8110   14.1400 C   0  0  0  0  0  0  0  0  0  0  0  0
   20.0250   -2.3230   14.4770 C   0  0  0  0  0  0  0  0  0  0  0  0
   20.6670   -1.4040   13.6460 C   0  0  0  0  0  0  0  0  0  0  0  0
   22.1350   -0.2900   11.0690 C   0  0  0  0  0  0  0  0  0  0  0  0
   22.8510   -1.5550   11.3320 C   0  0  0  0  0  0  0  0  0  0  0  0
   24.0930   -1.5770   12.0060 C   0  0  0  0  0  0  0  0  0  0  0  0
   24.7490   -2.7860   12.3010 C   0  0  0  0  0  0  0  0  0  0  0  0
   26.0780   -2.8010   13.0610 C   0  0  1  0  0  0  0  0  0  0  0  0
   25.8910   -3.1010   14.5490 C   0  0  0  0  0  0  0  0  0  0  0  0
   27.0980   -3.6390   12.4290 N   0  0  0  0  0  0  0  0  0  0  0  0
   24.1130   -3.9700   11.9050 C   0  0  0  0  0  0  0  0  0  0  0  0
   22.9020   -3.9740   11.2210 C   0  0  0  0  0  0  0  0  0  0  0  0
   22.2820   -2.7720   10.9250 C   0  0  0  0  0  0  0  0  0  0  0  0
   22.7730    0.6960   10.2880 C   0  0  0  0  0  0  0  0  0  0  0  0
   22.0420    4.5830    9.6560 H   0  0  0  0  0  0  0  0  0  0  0  0
   21.4320    3.7880    8.1520 H   0  0  0  0  0  0  0  0  0  0  0  0
   23.0410    4.5190    8.1990 H   0  0  0  0  0  0  0  0  0  0  0  0
   20.2920    3.0130   10.1070 H   0  0  0  0  0  0  0  0  0  0  0  0
   19.1620    1.3560   11.4750 H   0  0  0  0  0  0  0  0  0  0  0  0
   18.3520   -1.1870   11.1760 H   0  0  0  0  0  0  0  0  0  0  0  0
   18.3060   -3.5180   14.8210 H   0  0  0  0  0  0  0  0  0  0  0  0
   20.5130   -2.6550   15.3900 H   0  0  0  0  0  0  0  0  0  0  0  0
   21.6440   -1.0280   13.9430 H   0  0  0  0  0  0  0  0  0  0  0  0
   24.5390   -0.6330   12.3170 H   0  0  0  0  0  0  0  0  0  0  0  0
   26.5010   -1.7900   12.9920 H   0  0  0  0  0  0  0  0  0  0  0  0
   26.8630   -3.1710   15.0500 H   0  0  0  0  0  0  0  0  0  0  0  0
   25.3050   -2.3180   15.0390 H   0  0  0  0  0  0  0  0  0  0  0  0
   25.3540   -4.0370   14.7240 H   0  0  0  0  0  0  0  0  0  0  0  0
   27.9040   -3.1940   12.0150 H   0  0  0  0  0  0  0  0  0  0  0  0
   24.5570   -4.9290   12.1150 H   0  0  0  0  0  0  0  0  0  0  0  0
   22.4470   -4.9160   10.9250 H   0  0  0  0  0  0  0  0  0  0  0  0
   21.3350   -2.7870   10.3900 H   0  0  0  0  0  0  0  0  0  0  0  0
   23.7860    0.5230    9.9250 H   0  0  0  0  0  0  0  0  0  0  0  0
   -5.3910   -5.4680   -1.7040 C   0  0  0  0  0  0  0  0  0  0  0  0
   -4.0900   -4.9250   -1.4870 O   0  0  0  0  0  0  0  0  0  0  0  0
   -5.9980   -5.2400   -0.8230 H   0  0  0  0  0  0  0  0  0  0  0  0
   -5.3020   -6.5540   -1.7890 H   0  0  0  0  0  0  0  0  0  0  0  0
   -5.8710   -5.0800   -2.6070 H   0  0  0  0  0  0  0  0  0  0  0  0
   25.8110   -7.0880   15.0320 C   0  0  0  0  0  0  0  0  0  0  0  0
   26.3170   -6.9780   13.5850 C   0  0  0  0  0  0  0  0  0  0  0  0
   27.6240   -7.7580   13.4510 C   0  0  0  0  0  0  0  0  0  0  0  0
   25.2340   -7.4980   12.6410 C   0  0  0  0  0  0  0  0  0  0  0  0
   26.4850   -5.5580   13.3900 O   0  0  0  0  0  0  0  0  0  0  0  0
   27.1120   -5.0000   12.3390 C   0  0  0  0  0  0  0  0  0  0  0  0
   27.6740   -5.5960   11.4340 O   0  0  0  0  0  0  0  0  0  0  0  0
   25.5950   -8.1230   15.3110 H   0  0  0  0  0  0  0  0  0  0  0  0
   26.5490   -6.6810   15.7340 H   0  0  0  0  0  0  0  0  0  0  0  0
   24.9000   -6.4930   15.1710 H   0  0  0  0  0  0  0  0  0  0  0  0
   28.4070   -7.3230   14.0820 H   0  0  0  0  0  0  0  0  0  0  0  0
   28.0030   -7.7510   12.4250 H   0  0  0  0  0  0  0  0  0  0  0  0
   27.4860   -8.8060   13.7370 H   0  0  0  0  0  0  0  0  0  0  0  0
   24.3020   -6.9380   12.7750 H   0  0  0  0  0  0  0  0  0  0  0  0
   25.5270   -7.3780   11.5930 H   0  0  0  0  0  0  0  0  0  0  0  0
   25.0120   -8.5530   12.8260 H   0  0  0  0  0  0  0  0  0  0  0  0
  1 28  1  0  0  0  0
  1 26  1  0  0  0  0
  2  1  1  0  0  0  0
  3  2  1  0  0  0  0
  3  4  1  0  0  0  0
  4 29  1  0  0  0  0
  5  4  2  0  0  0  0
  5 30  1  0  0  0  0
  6  5  1  0  0  0  0
  7  6  1  0  0  0  0
  7 14  1  0  0  0  0
  8  7  2  0  0  0  0
  9  8  1  0  0  0  0
  9 12  2  0  0  0  0
 10178  1  0  0  0  0
 10  9  1  0  0  0  0
 11 10  2  0  0  0  0
 12 13  1  0  0  0  0
 13 14  2  0  0  0  0
 13 33  1  0  0  0  0
 14 34  1  0  0  0  0
 15 25  1  0  0  0  0
 15  6  2  0  0  0  0
 16 15  1  0  0  0  0
 16 17  1  0  0  0  0
 17 35  1  0  0  0  0
 18 17  2  0  0  0  0
 18 19  1  0  0  0  0
 19 36  1  1  0  0  0
 19 20  1  0  0  0  0
 20 38  1  0  0  0  0
 20 37  1  0  0  0  0
 21 40  1  0  0  0  0
 21 19  1  0  0  0  0
 22 18  1  0  0  0  0
 23 24  1  0  0  0  0
 23 22  2  0  0  0  0
 24 16  2  0  0  0  0
 25  3  2  0  0  0  0
 27  1  1  0  0  0  0
 31  8  1  0  0  0  0
 32 12  1  0  0  0  0
 39 20  1  0  0  0  0
 41 22  1  0  0  0  0
 42 23  1  0  0  0  0
 43 24  1  0  0  0  0
 44 25  1  0  0  0  0
 45 46  1  0  0  0  0
 46 47  1  0  0  0  0
 47 69  1  0  0  0  0
 48 47  2  0  0  0  0
 48 49  1  0  0  0  0
 49 50  2  0  0  0  0
 50 59  1  0  0  0  0
 50 51  1  0  0  0  0
 51 58  1  0  0  0  0
 52 51  2  0  0  0  0
 52 53  1  0  0  0  0
 53 56  2  0  0  0  0
 54 53  1  0  0  0  0
 54 21  1  0  0  0  0
 55 54  2  0  0  0  0
 56 57  1  0  0  0  0
 56 76  1  0  0  0  0
 57 77  1  0  0  0  0
 58 78  1  0  0  0  0
 58 57  2  0  0  0  0
 59 60  1  0  0  0  0
 60 68  2  0  0  0  0
 60 61  1  0  0  0  0
 61 62  2  0  0  0  0
 62 66  1  0  0  0  0
 62 63  1  0  0  0  0
 63 80  1  6  0  0  0
 63 65  1  0  0  0  0
 63 64  1  0  0  0  0
 64 81  1  0  0  0  0
 64 83  1  0  0  0  0
 65 84  1  0  0  0  0
 65 98  1  0  0  0  0
 66 85  1  0  0  0  0
 67 86  1  0  0  0  0
 67 66  2  0  0  0  0
 68 67  1  0  0  0  0
 69 88  1  0  0  0  0
 69 59  2  0  0  0  0
 70 45  1  0  0  0  0
 71 45  1  0  0  0  0
 72 45  1  0  0  0  0
 73 48  1  0  0  0  0
 74 49  1  0  0  0  0
 75 52  1  0  0  0  0
 79 61  1  0  0  0  0
 82 64  1  0  0  0  0
 87 68  1  0  0  0  0
 89116  1  0  0  0  0
 90 89  1  0  0  0  0
 91 90  1  0  0  0  0
 92117  1  0  0  0  0
 92 91  2  0  0  0  0
 93 92  1  0  0  0  0
 94 93  2  0  0  0  0
 94103  1  0  0  0  0
 95102  1  0  0  0  0
 95 94  1  0  0  0  0
 96 95  2  0  0  0  0
 97100  2  0  0  0  0
 97 96  1  0  0  0  0
 98 97  1  0  0  0  0
 99 98  2  0  0  0  0
100101  1  0  0  0  0
101121  1  0  0  0  0
101102  2  0  0  0  0
102122  1  0  0  0  0
103113  2  0  0  0  0
104103  1  0  0  0  0
104105  1  0  0  0  0
105123  1  0  0  0  0
106105  2  0  0  0  0
106107  1  0  0  0  0
107109  1  0  0  0  0
107124  1  1  0  0  0
108107  1  0  0  0  0
108125  1  0  0  0  0
109128  1  0  0  0  0
110106  1  0  0  0  0
111112  1  0  0  0  0
111110  2  0  0  0  0
112104  2  0  0  0  0
113 91  1  0  0  0  0
113132  1  0  0  0  0
114 89  1  0  0  0  0
115 89  1  0  0  0  0
118 93  1  0  0  0  0
119 96  1  0  0  0  0
120100  1  0  0  0  0
126108  1  0  0  0  0
127108  1  0  0  0  0
129110  1  0  0  0  0
130111  1  0  0  0  0
131112  1  0  0  0  0
133134  1  0  0  0  0
133158  1  0  0  0  0
134135  1  0  0  0  0
135157  2  0  0  0  0
135136  1  0  0  0  0
136137  2  0  0  0  0
137162  1  0  0  0  0
137138  1  0  0  0  0
138139  1  0  0  0  0
139146  1  0  0  0  0
140139  2  0  0  0  0
140141  1  0  0  0  0
141144  2  0  0  0  0
142141  1  0  0  0  0
142109  1  0  0  0  0
143142  2  0  0  0  0
144145  1  0  0  0  0
144164  1  0  0  0  0
145165  1  0  0  0  0
146166  1  0  0  0  0
146145  2  0  0  0  0
147148  1  0  0  0  0
147138  2  0  0  0  0
148149  1  0  0  0  0
149150  2  0  0  0  0
149167  1  0  0  0  0
150151  1  0  0  0  0
151168  1  6  0  0  0
151152  1  0  0  0  0
152171  1  0  0  0  0
152170  1  0  0  0  0
152169  1  0  0  0  0
153151  1  0  0  0  0
154173  1  0  0  0  0
154150  1  0  0  0  0
155154  2  0  0  0  0
156155  1  0  0  0  0
156148  2  0  0  0  0
157147  1  0  0  0  0
159133  1  0  0  0  0
160133  1  0  0  0  0
161136  1  0  0  0  0
163140  1  0  0  0  0
172153  1  0  0  0  0
174155  1  0  0  0  0
175156  1  0  0  0  0
176157  1  0  0  0  0
177178  1  0  0  0  0
177179  1  0  0  0  0
180177  1  0  0  0  0
181177  1  0  0  0  0
182191  1  0  0  0  0
182189  1  0  0  0  0
182190  1  0  0  0  0
183182  1  0  0  0  0
184183  1  0  0  0  0
184194  1  0  0  0  0
184192  1  0  0  0  0
185195  1  0  0  0  0
185197  1  0  0  0  0
185183  1  0  0  0  0
186183  1  0  0  0  0
187153  1  0  0  0  0
187186  1  0  0  0  0
188187  2  0  0  0  0
193184  1  0  0  0  0
196185  1  0  0  0  0
M  END
