mom_tetramer.pdb
  -OEChem-09112515053D

197208  0     1  0  0  0  0  0999 V2000
   -2.6480    5.4590    0.8750 C   0  0  0  0  0  0  0  0  0  0  0  0
   -1.5200    4.6450    0.5890 O   0  0  0  0  0  0  0  0  0  0  0  0
   -1.7280    3.2990    0.4690 C   0  0  0  0  0  0  0  0  0  0  0  0
   -2.9390    2.6320    0.6180 C   0  0  0  0  0  0  0  0  0  0  0  0
   -2.9900    1.2390    0.4840 C   0  0  0  0  0  0  0  0  0  0  0  0
   -1.8400    0.4790    0.1890 C   0  0  0  0  0  0  0  0  0  0  0  0
   -1.9510   -0.9990    0.1120 C   0  0  0  0  0  0  0  0  0  0  0  0
   -2.8280   -1.6170   -0.7950 C   0  0  0  0  0  0  0  0  0  0  0  0
   -2.9170   -3.0170   -0.8760 C   0  0  0  0  0  0  0  0  0  0  0  0
   -3.9690   -3.5980   -1.7520 C   0  0  0  0  0  0  0  0  0  0  0  0
   -4.7340   -2.9290   -2.4270 O   0  0  0  0  0  0  0  0  0  0  0  0
   -2.1060   -3.8160   -0.0610 C   0  0  0  0  0  0  0  0  0  0  0  0
   -1.2330   -3.2200    0.8450 C   0  0  0  0  0  0  0  0  0  0  0  0
   -1.1690   -1.8280    0.9370 C   0  0  0  0  0  0  0  0  0  0  0  0
   -0.6100    1.1670   -0.0040 C   0  0  0  0  0  0  0  0  0  0  0  0
    0.6280    0.4710   -0.4060 C   0  0  0  0  0  0  0  0  0  0  0  0
    1.8040    0.5490    0.3570 C   0  0  0  0  0  0  0  0  0  0  0  0
    2.9410   -0.2170    0.0430 C   0  0  0  0  0  0  0  0  0  0  0  0
    4.2070   -0.1300    0.8680 C   0  0  1  0  0  0  0  0  0  0  0  0
    4.4940   -1.4200    1.6370 C   0  0  0  0  0  0  0  0  0  0  0  0
    5.4100    0.3260    0.1550 N   0  0  0  0  0  0  0  0  0  0  0  0
    2.8340   -1.1050   -1.0360 C   0  0  0  0  0  0  0  0  0  0  0  0
    1.7270   -1.1250   -1.8650 C   0  0  0  0  0  0  0  0  0  0  0  0
    0.6360   -0.3290   -1.5590 C   0  0  0  0  0  0  0  0  0  0  0  0
   -0.5810    2.5660    0.1590 C   0  0  0  0  0  0  0  0  0  0  0  0
   -3.0860    5.2050    1.8450 H   0  0  0  0  0  0  0  0  0  0  0  0
   -3.3920    5.4000    0.0740 H   0  0  0  0  0  0  0  0  0  0  0  0
   -2.3000    6.4960    0.9290 H   0  0  0  0  0  0  0  0  0  0  0  0
   -3.8600    3.1590    0.8420 H   0  0  0  0  0  0  0  0  0  0  0  0
   -3.9480    0.7370    0.6230 H   0  0  0  0  0  0  0  0  0  0  0  0
   -3.4530   -1.0060   -1.4440 H   0  0  0  0  0  0  0  0  0  0  0  0
   -2.1590   -4.9010   -0.1020 H   0  0  0  0  0  0  0  0  0  0  0  0
   -0.6070   -3.8360    1.4840 H   0  0  0  0  0  0  0  0  0  0  0  0
   -0.4810   -1.3860    1.6550 H   0  0  0  0  0  0  0  0  0  0  0  0
    1.8260    1.1970    1.2380 H   0  0  0  0  0  0  0  0  0  0  0  0
    4.0460    0.6570    1.6260 H   0  0  0  0  0  0  0  0  0  0  0  0
    5.3590   -1.2900    2.2970 H   0  0  0  0  0  0  0  0  0  0  0  0
    3.6390   -1.7160    2.2550 H   0  0  0  0  0  0  0  0  0  0  0  0
    4.7250   -2.2530    0.9620 H   0  0  0  0  0  0  0  0  0  0  0  0
    6.0390    0.7960    0.7820 H   0  0  0  0  0  0  0  0  0  0  0  0
    3.6510   -1.7880   -1.2730 H   0  0  0  0  0  0  0  0  0  0  0  0
    1.7180   -1.7660   -2.7420 H   0  0  0  0  0  0  0  0  0  0  0  0
   -0.2380   -0.3710   -2.2070 H   0  0  0  0  0  0  0  0  0  0  0  0
    0.3550    3.1050    0.0180 H   0  0  0  0  0  0  0  0  0  0  0  0
   11.2620   -6.4790   -6.0270 C   0  0  0  0  0  0  0  0  0  0  0  0
   11.2340   -6.6320   -4.6150 O   0  0  0  0  0  0  0  0  0  0  0  0
   10.6780   -5.6160   -3.8890 C   0  0  0  0  0  0  0  0  0  0  0  0
   10.1240   -4.4460   -4.3940 C   0  0  0  0  0  0  0  0  0  0  0  0
    9.6070   -3.4790   -3.5220 C   0  0  0  0  0  0  0  0  0  0  0  0
    9.6300   -3.6560   -2.1250 C   0  0  0  0  0  0  0  0  0  0  0  0
    9.1370   -2.5580   -1.2510 C   0  0  0  0  0  0  0  0  0  0  0  0
    7.8490   -2.0210   -1.3950 C   0  0  0  0  0  0  0  0  0  0  0  0
    7.3820   -0.9810   -0.5620 C   0  0  0  0  0  0  0  0  0  0  0  0
    6.0150   -0.4470   -0.8250 C   0  0  0  0  0  0  0  0  0  0  0  0
    5.4950   -0.7180   -1.9010 O   0  0  0  0  0  0  0  0  0  0  0  0
    8.1980   -0.5140    0.4710 C   0  0  0  0  0  0  0  0  0  0  0  0
    9.4800   -1.0290    0.6250 C   0  0  0  0  0  0  0  0  0  0  0  0
    9.9530   -2.0170   -0.2420 C   0  0  0  0  0  0  0  0  0  0  0  0
   10.1550   -4.8760   -1.6120 C   0  0  0  0  0  0  0  0  0  0  0  0
   10.1270   -5.2030   -0.1730 C   0  0  0  0  0  0  0  0  0  0  0  0
   11.3020   -5.4980    0.5460 C   0  0  0  0  0  0  0  0  0  0  0  0
   11.2750   -5.6840    1.9410 C   0  0  0  0  0  0  0  0  0  0  0  0
   12.5460   -5.9950    2.7060 C   0  0  1  0  0  0  0  0  0  0  0  0
   12.9580   -4.8470    3.6320 C   0  0  0  0  0  0  0  0  0  0  0  0
   12.5630   -7.2760    3.4300 N   0  0  0  0  0  0  0  0  0  0  0  0
   10.0530   -5.5110    2.5970 C   0  0  0  0  0  0  0  0  0  0  0  0
    8.8690   -5.3220    1.8970 C   0  0  0  0  0  0  0  0  0  0  0  0
    8.9020   -5.1830    0.5160 C   0  0  0  0  0  0  0  0  0  0  0  0
   10.6840   -5.8240   -2.5090 C   0  0  0  0  0  0  0  0  0  0  0  0
   11.8680   -5.6140   -6.3190 H   0  0  0  0  0  0  0  0  0  0  0  0
   10.2500   -6.4120   -6.4380 H   0  0  0  0  0  0  0  0  0  0  0  0
   11.7340   -7.3730   -6.4480 H   0  0  0  0  0  0  0  0  0  0  0  0
   10.0810   -4.2450   -5.4600 H   0  0  0  0  0  0  0  0  0  0  0  0
    9.1930   -2.5650   -3.9450 H   0  0  0  0  0  0  0  0  0  0  0  0
    7.1820   -2.4290   -2.1570 H   0  0  0  0  0  0  0  0  0  0  0  0
    7.8750    0.2520    1.1660 H   0  0  0  0  0  0  0  0  0  0  0  0
   10.1220   -0.6580    1.4190 H   0  0  0  0  0  0  0  0  0  0  0  0
   10.9630   -2.3880   -0.1050 H   0  0  0  0  0  0  0  0  0  0  0  0
   12.2500   -5.5470    0.0110 H   0  0  0  0  0  0  0  0  0  0  0  0
   13.3540   -6.1080    1.9700 H   0  0  0  0  0  0  0  0  0  0  0  0
   13.9360   -5.0530    4.0830 H   0  0  0  0  0  0  0  0  0  0  0  0
   13.0300   -3.9010    3.0860 H   0  0  0  0  0  0  0  0  0  0  0  0
   12.2460   -4.7100    4.4530 H   0  0  0  0  0  0  0  0  0  0  0  0
   13.5000   -7.6310    3.5020 H   0  0  0  0  0  0  0  0  0  0  0  0
    9.9940   -5.5530    3.6780 H   0  0  0  0  0  0  0  0  0  0  0  0
    7.9260   -5.2770    2.4320 H   0  0  0  0  0  0  0  0  0  0  0  0
    7.9750   -5.0140   -0.0160 H   0  0  0  0  0  0  0  0  0  0  0  0
   11.0920   -6.7580   -2.1270 H   0  0  0  0  0  0  0  0  0  0  0  0
    7.7500   -8.3910   13.1380 C   0  0  0  0  0  0  0  0  0  0  0  0
    8.9230   -7.6000   13.0060 O   0  0  0  0  0  0  0  0  0  0  0  0
    9.6020   -7.6800   11.8230 C   0  0  0  0  0  0  0  0  0  0  0  0
    9.2610   -8.4640   10.7260 C   0  0  0  0  0  0  0  0  0  0  0  0
   10.0730   -8.4640    9.5840 C   0  0  0  0  0  0  0  0  0  0  0  0
   11.2420   -7.6890    9.5050 C   0  0  0  0  0  0  0  0  0  0  0  0
   12.1010   -7.7960    8.2960 C   0  0  0  0  0  0  0  0  0  0  0  0
   11.5860   -7.6010    7.0040 C   0  0  0  0  0  0  0  0  0  0  0  0
   12.4000   -7.7150    5.8560 C   0  0  0  0  0  0  0  0  0  0  0  0
   11.7500   -7.5100    4.5300 C   0  0  0  0  0  0  0  0  0  0  0  0
   10.5260   -7.5510    4.4820 O   0  0  0  0  0  0  0  0  0  0  0  0
   13.7640   -7.9750    6.0060 C   0  0  0  0  0  0  0  0  0  0  0  0
   14.2930   -8.1700    7.2760 C   0  0  0  0  0  0  0  0  0  0  0  0
   13.4680   -8.1070    8.4030 C   0  0  0  0  0  0  0  0  0  0  0  0
   11.5590   -6.8420   10.6100 C   0  0  0  0  0  0  0  0  0  0  0  0
   12.6960   -5.9040   10.5810 C   0  0  0  0  0  0  0  0  0  0  0  0
   13.7310   -5.9580   11.5300 C   0  0  0  0  0  0  0  0  0  0  0  0
   14.8750   -5.1560   11.4190 C   0  0  0  0  0  0  0  0  0  0  0  0
   15.9740   -5.2100   12.4510 C   0  0  1  0  0  0  0  0  0  0  0  0
   17.2740   -5.8040   11.9030 C   0  0  0  0  0  0  0  0  0  0  0  0
   16.2370   -3.9540   13.1700 N   0  0  0  0  0  0  0  0  0  0  0  0
   14.9780   -4.3310   10.2780 C   0  0  0  0  0  0  0  0  0  0  0  0
   13.9310   -4.1820    9.4000 C   0  0  0  0  0  0  0  0  0  0  0  0
   12.7800   -4.9510    9.5490 C   0  0  0  0  0  0  0  0  0  0  0  0
   10.7380   -6.8720   11.7550 C   0  0  0  0  0  0  0  0  0  0  0  0
    7.9800   -9.4580   13.0570 H   0  0  0  0  0  0  0  0  0  0  0  0
    6.9900   -8.0910   12.4090 H   0  0  0  0  0  0  0  0  0  0  0  0
    7.3420   -8.2140   14.1380 H   0  0  0  0  0  0  0  0  0  0  0  0
    8.3770   -9.0920   10.7230 H   0  0  0  0  0  0  0  0  0  0  0  0
    9.7900   -9.1020    8.7470 H   0  0  0  0  0  0  0  0  0  0  0  0
   10.5340   -7.3380    6.8840 H   0  0  0  0  0  0  0  0  0  0  0  0
   14.4400   -8.0410    5.1620 H   0  0  0  0  0  0  0  0  0  0  0  0
   15.3530   -8.3780    7.3960 H   0  0  0  0  0  0  0  0  0  0  0  0
   13.9110   -8.2770    9.3790 H   0  0  0  0  0  0  0  0  0  0  0  0
   13.6440   -6.6530   12.3540 H   0  0  0  0  0  0  0  0  0  0  0  0
   15.6350   -5.8830   13.2500 H   0  0  0  0  0  0  0  0  0  0  0  0
   18.0010   -5.9340   12.7160 H   0  0  0  0  0  0  0  0  0  0  0  0
   17.1010   -6.7780   11.4430 H   0  0  0  0  0  0  0  0  0  0  0  0
   17.7370   -5.1480   11.1590 H   0  0  0  0  0  0  0  0  0  0  0  0
   16.6040   -4.1460   14.0820 H   0  0  0  0  0  0  0  0  0  0  0  0
   15.8760   -3.7510   10.0820 H   0  0  0  0  0  0  0  0  0  0  0  0
   13.9960   -3.4680    8.5770 H   0  0  0  0  0  0  0  0  0  0  0  0
   11.9730   -4.8550    8.8430 H   0  0  0  0  0  0  0  0  0  0  0  0
   10.9750   -6.2380   12.6060 H   0  0  0  0  0  0  0  0  0  0  0  0
   22.3050    3.9690    8.7940 C   0  0  0  0  0  0  0  0  0  0  0  0
   22.8930    2.7320    9.1710 O   0  0  0  0  0  0  0  0  0  0  0  0
   22.1320    1.8790    9.9200 C   0  0  0  0  0  0  0  0  0  0  0  0
   20.8280    2.0960   10.3490 C   0  0  0  0  0  0  0  0  0  0  0  0
   20.1800    1.1350   11.1350 C   0  0  0  0  0  0  0  0  0  0  0  0
   20.8140   -0.0660   11.5120 C   0  0  0  0  0  0  0  0  0  0  0  0
   20.1000   -1.0040   12.4120 C   0  0  0  0  0  0  0  0  0  0  0  0
   18.8310   -1.5150   12.0860 C   0  0  0  0  0  0  0  0  0  0  0  0
   18.1520   -2.4010   12.9460 C   0  0  0  0  0  0  0  0  0  0  0  0
   16.7930   -2.8450   12.5320 C   0  0  0  0  0  0  0  0  0  0  0  0
   16.2230   -2.2090   11.6550 O   0  0  0  0  0  0  0  0  0  0  0  0
   18.7750   -2.8340   14.1170 C   0  0  0  0  0  0  0  0  0  0  0  0
   20.0310   -2.3350   14.4590 C   0  0  0  0  0  0  0  0  0  0  0  0
   20.6690   -1.4150   13.6260 C   0  0  0  0  0  0  0  0  0  0  0  0
   22.1340   -0.3040   11.0400 C   0  0  0  0  0  0  0  0  0  0  0  0
   22.8520   -1.5660   11.3040 C   0  0  0  0  0  0  0  0  0  0  0  0
   24.0860   -1.5820   11.9910 C   0  0  0  0  0  0  0  0  0  0  0  0
   24.7370   -2.7880   12.2980 C   0  0  0  0  0  0  0  0  0  0  0  0
   26.0670   -2.8050   13.0520 C   0  0  1  0  0  0  0  0  0  0  0  0
   25.8960   -3.1420   14.5350 C   0  0  0  0  0  0  0  0  0  0  0  0
   27.0750   -3.6230   12.3730 N   0  0  0  0  0  0  0  0  0  0  0  0
   24.1090   -3.9750   11.8970 C   0  0  0  0  0  0  0  0  0  0  0  0
   22.9080   -3.9850   11.1940 C   0  0  0  0  0  0  0  0  0  0  0  0
   22.2910   -2.7860   10.8920 C   0  0  0  0  0  0  0  0  0  0  0  0
   22.7690    0.6840   10.2600 C   0  0  0  0  0  0  0  0  0  0  0  0
   22.0310    4.5650    9.6710 H   0  0  0  0  0  0  0  0  0  0  0  0
   21.4440    3.8110    8.1370 H   0  0  0  0  0  0  0  0  0  0  0  0
   23.0550    4.5340    8.2310 H   0  0  0  0  0  0  0  0  0  0  0  0
   20.2860    3.0030   10.1020 H   0  0  0  0  0  0  0  0  0  0  0  0
   19.1650    1.3390   11.4740 H   0  0  0  0  0  0  0  0  0  0  0  0
   18.3720   -1.2320   11.1380 H   0  0  0  0  0  0  0  0  0  0  0  0
   18.3150   -3.5420   14.7950 H   0  0  0  0  0  0  0  0  0  0  0  0
   20.5120   -2.6600   15.3760 H   0  0  0  0  0  0  0  0  0  0  0  0
   21.6400   -1.0270   13.9310 H   0  0  0  0  0  0  0  0  0  0  0  0
   24.5310   -0.6360   12.2980 H   0  0  0  0  0  0  0  0  0  0  0  0
   26.4810   -1.7880   13.0050 H   0  0  0  0  0  0  0  0  0  0  0  0
   26.8720   -3.1800   15.0330 H   0  0  0  0  0  0  0  0  0  0  0  0
   25.2730   -2.4010   15.0430 H   0  0  0  0  0  0  0  0  0  0  0  0
   25.4010   -4.1030   14.6940 H   0  0  0  0  0  0  0  0  0  0  0  0
   28.0020   -3.2330   12.2760 H   0  0  0  0  0  0  0  0  0  0  0  0
   24.5580   -4.9290   12.1100 H   0  0  0  0  0  0  0  0  0  0  0  0
   22.4670   -4.9300   10.8900 H   0  0  0  0  0  0  0  0  0  0  0  0
   21.3490   -2.8050   10.3460 H   0  0  0  0  0  0  0  0  0  0  0  0
   23.7800    0.5130    9.8950 H   0  0  0  0  0  0  0  0  0  0  0  0
   -5.3780   -5.4500   -1.6570 C   0  0  0  0  0  0  0  0  0  0  0  0
   -4.0560   -4.9330   -1.5290 O   0  0  0  0  0  0  0  0  0  0  0  0
   -5.9230   -5.1970   -0.7420 H   0  0  0  0  0  0  0  0  0  0  0  0
   -5.3200   -6.5390   -1.7320 H   0  0  0  0  0  0  0  0  0  0  0  0
   -5.9070   -5.0620   -2.5320 H   0  0  0  0  0  0  0  0  0  0  0  0
   25.8270   -7.0540   15.0200 C   0  0  0  0  0  0  0  0  0  0  0  0
   26.3200   -6.9570   13.5670 C   0  0  0  0  0  0  0  0  0  0  0  0
   27.6140   -7.7510   13.4200 C   0  0  0  0  0  0  0  0  0  0  0  0
   25.2140   -7.4640   12.6440 C   0  0  0  0  0  0  0  0  0  0  0  0
   26.5280   -5.5420   13.3700 O   0  0  0  0  0  0  0  0  0  0  0  0
   27.0750   -4.9860   12.2750 C   0  0  0  0  0  0  0  0  0  0  0  0
   27.5490   -5.5880   11.3240 O   0  0  0  0  0  0  0  0  0  0  0  0
   25.6090   -8.0890   15.3050 H   0  0  0  0  0  0  0  0  0  0  0  0
   26.5700   -6.6490   15.7160 H   0  0  0  0  0  0  0  0  0  0  0  0
   24.9180   -6.4600   15.1650 H   0  0  0  0  0  0  0  0  0  0  0  0
   28.4100   -7.3180   14.0350 H   0  0  0  0  0  0  0  0  0  0  0  0
   27.9750   -7.7500   12.3870 H   0  0  0  0  0  0  0  0  0  0  0  0
   27.4690   -8.7940   13.7180 H   0  0  0  0  0  0  0  0  0  0  0  0
   24.2900   -6.8960   12.7950 H   0  0  0  0  0  0  0  0  0  0  0  0
   25.4860   -7.3550   11.5900 H   0  0  0  0  0  0  0  0  0  0  0  0
   24.9830   -8.5160   12.8400 H   0  0  0  0  0  0  0  0  0  0  0  0
  1 28  1  0  0  0  0
  1 26  1  0  0  0  0
  1  2  1  0  0  0  0
  2  3  1  0  0  0  0
  3  4  2  0  0  0  0
  4 29  1  0  0  0  0
  4  5  1  0  0  0  0
  5 30  1  0  0  0  0
  5  6  2  0  0  0  0
  6  7  1  0  0  0  0
  7 14  1  0  0  0  0
  7  8  2  0  0  0  0
  8  9  1  0  0  0  0
  9 12  2  0  0  0  0
 10178  1  0  0  0  0
  9 10  1  0  0  0  0
 10 11  2  0  0  0  0
 12 13  1  0  0  0  0
 13 14  2  0  0  0  0
 13 33  1  0  0  0  0
 14 34  1  0  0  0  0
 15 25  2  0  0  0  0
  6 15  1  0  0  0  0
 15 16  1  0  0  0  0
 16 17  2  0  0  0  0
 17 35  1  0  0  0  0
 17 18  1  0  0  0  0
 18 19  1  0  0  0  0
 19 36  1  0  0  0  0
 19 20  1  0  0  0  0
 20 38  1  0  0  0  0
 20 37  1  0  0  0  0
 21 40  1  0  0  0  0
 19 21  1  0  0  0  0
 18 22  2  0  0  0  0
 23 24  2  0  0  0  0
 22 23  1  0  0  0  0
 16 24  1  0  0  0  0
  3 25  1  0  0  0  0
  1 27  1  0  0  0  0
  8 31  1  0  0  0  0
 12 32  1  0  0  0  0
 20 39  1  0  0  0  0
 22 41  1  0  0  0  0
 23 42  1  0  0  0  0
 24 43  1  0  0  0  0
 25 44  1  0  0  0  0
 45 46  1  0  0  0  0
 46 47  1  0  0  0  0
 47 69  2  0  0  0  0
 47 48  1  0  0  0  0
 48 49  2  0  0  0  0
 49 50  1  0  0  0  0
 50 59  2  0  0  0  0
 50 51  1  0  0  0  0
 51 58  1  0  0  0  0
 51 52  2  0  0  0  0
 52 53  1  0  0  0  0
 53 56  2  0  0  0  0
 53 54  1  0  0  0  0
 21 54  1  0  0  0  0
 54 55  2  0  0  0  0
 56 57  1  0  0  0  0
 56 76  1  0  0  0  0
 57 77  1  0  0  0  0
 58 78  1  0  0  0  0
 57 58  2  0  0  0  0
 59 60  1  0  0  0  0
 60 68  1  0  0  0  0
 60 61  2  0  0  0  0
 61 62  1  0  0  0  0
 62 66  2  0  0  0  0
 62 63  1  0  0  0  0
 63 80  1  0  0  0  0
 63 65  1  0  0  0  0
 63 64  1  0  0  0  0
 64 81  1  0  0  0  0
 64 83  1  0  0  0  0
 65 84  1  0  0  0  0
 65 98  1  0  0  0  0
 66 85  1  0  0  0  0
 67 86  1  0  0  0  0
 66 67  1  0  0  0  0
 67 68  2  0  0  0  0
 69 88  1  0  0  0  0
 59 69  1  0  0  0  0
 45 70  1  0  0  0  0
 45 71  1  0  0  0  0
 45 72  1  0  0  0  0
 48 73  1  0  0  0  0
 49 74  1  0  0  0  0
 52 75  1  0  0  0  0
 61 79  1  0  0  0  0
 64 82  1  0  0  0  0
 68 87  1  0  0  0  0
 89116  1  0  0  0  0
 89 90  1  0  0  0  0
 90 91  1  0  0  0  0
 91 92  2  0  0  0  0
 92 93  1  0  0  0  0
 93 94  2  0  0  0  0
 94103  1  0  0  0  0
 95102  1  0  0  0  0
 94 95  1  0  0  0  0
 95 96  2  0  0  0  0
 97100  2  0  0  0  0
 96 97  1  0  0  0  0
 97 98  1  0  0  0  0
 98 99  2  0  0  0  0
100101  1  0  0  0  0
101121  1  0  0  0  0
101102  2  0  0  0  0
102122  1  0  0  0  0
103113  2  0  0  0  0
103104  1  0  0  0  0
104105  2  0  0  0  0
105123  1  0  0  0  0
105106  1  0  0  0  0
106107  1  0  0  0  0
107109  1  0  0  0  0
107124  1  0  0  0  0
107108  1  0  0  0  0
108125  1  0  0  0  0
109128  1  0  0  0  0
106110  2  0  0  0  0
111112  2  0  0  0  0
110111  1  0  0  0  0
104112  1  0  0  0  0
 91113  1  0  0  0  0
113132  1  0  0  0  0
 89114  1  0  0  0  0
 89115  1  0  0  0  0
 92117  1  0  0  0  0
 93118  1  0  0  0  0
 96119  1  0  0  0  0
100120  1  0  0  0  0
108126  1  0  0  0  0
108127  1  0  0  0  0
110129  1  0  0  0  0
111130  1  0  0  0  0
112131  1  0  0  0  0
133134  1  0  0  0  0
133158  1  0  0  0  0
134135  1  0  0  0  0
135157  2  0  0  0  0
135136  1  0  0  0  0
136137  2  0  0  0  0
137162  1  0  0  0  0
137138  1  0  0  0  0
138139  1  0  0  0  0
139146  1  0  0  0  0
139140  2  0  0  0  0
140141  1  0  0  0  0
141144  2  0  0  0  0
141142  1  0  0  0  0
109142  1  0  0  0  0
142143  2  0  0  0  0
144145  1  0  0  0  0
144164  1  0  0  0  0
145165  1  0  0  0  0
146166  1  0  0  0  0
145146  2  0  0  0  0
147148  1  0  0  0  0
138147  2  0  0  0  0
148149  2  0  0  0  0
149150  1  0  0  0  0
149167  1  0  0  0  0
150151  1  0  0  0  0
151168  1  0  0  0  0
151152  1  0  0  0  0
152171  1  0  0  0  0
152169  1  0  0  0  0
152170  1  0  0  0  0
151153  1  0  0  0  0
154173  1  0  0  0  0
150154  2  0  0  0  0
154155  1  0  0  0  0
155156  2  0  0  0  0
148156  1  0  0  0  0
147157  1  0  0  0  0
133159  1  0  0  0  0
133160  1  0  0  0  0
136161  1  0  0  0  0
140163  1  0  0  0  0
153172  1  0  0  0  0
155174  1  0  0  0  0
156175  1  0  0  0  0
157176  1  0  0  0  0
177178  1  0  0  0  0
177179  1  0  0  0  0
177180  1  0  0  0  0
177181  1  0  0  0  0
182191  1  0  0  0  0
182189  1  0  0  0  0
182190  1  0  0  0  0
182183  1  0  0  0  0
183184  1  0  0  0  0
184194  1  0  0  0  0
184192  1  0  0  0  0
185195  1  0  0  0  0
185197  1  0  0  0  0
183185  1  0  0  0  0
183186  1  0  0  0  0
153187  1  0  0  0  0
186187  1  0  0  0  0
187188  2  0  0  0  0
184193  1  0  0  0  0
185196  1  0  0  0  0
M  END
> <atom.dprop.PartialCharge>
0.107620 -0.318360 0.122320 -0.202280 -0.083680 -0.071360 -0.045730 -0.058600 -0.128720 0.646140 -0.534820 -0.074120 -0.147050 -0.086890 0.008340 -0.045210 -0.095030 -0.091260 0.150430 -0.115160 -0.562160 -0.115630 -0.136400 -0.110370 -0.144860 0.044990 0.044990 0.044990 0.141760 0.140550 0.159390 0.150120 0.137940 0.139540 0.143600 0.083980 0.047840 0.047840 0.047840 0.314990 0.136440 0.127210 0.134540 0.157850 0.112050 -0.325620 0.126670 -0.204370 -0.085050 -0.065450 -0.047880 -0.081370 -0.138770 0.676200 -0.611010 -0.074180 -0.149350 -0.108290 0.010010 -0.047920 -0.096850 -0.106940 0.155280 -0.117980 -0.560730 -0.109180 -0.142510 -0.116460 -0.144570 0.045750 0.045750 0.045750 0.139360 0.135810 0.151310 0.159060 0.132740 0.136280 0.137650 0.078960 0.052860 0.052860 0.052860 0.310730 0.142080 0.130320 0.138680 0.156340 0.112160 -0.324950 0.124740 -0.204310 -0.087940 -0.064440 -0.050050 -0.087310 -0.140340 0.688930 -0.623380 -0.073260 -0.138060 -0.095420 0.007220 -0.044360 -0.091750 -0.110470 0.146330 -0.102000 -0.565690 -0.117140 -0.131220 -0.107370 -0.143950 0.045150 0.045150 0.045150 0.138840 0.135160 0.142630 0.157360 0.143000 0.138300 0.143330 0.088090 0.043930 0.043930 0.043930 0.305350 0.127080 0.132760 0.136500 0.156280 0.113510 -0.325370 0.123130 -0.152390 -0.075190 -0.054590 -0.042680 -0.060000 -0.149520 0.678880 -0.601430 -0.104430 -0.145950 -0.095310 0.004800 -0.039870 -0.105890 -0.102310 0.165060 -0.115860 -0.560450 -0.109230 -0.132770 -0.110450 -0.199150 0.043860 0.043860 0.043860 0.150650 0.142050 0.183530 0.132340 0.133810 0.136750 0.141900 0.082050 0.046560 0.046560 0.046560 0.343240 0.137880 0.133650 0.136090 0.141360 0.126480 -0.439390 0.050710 0.050710 0.050710 -0.113110 0.186530 -0.113110 -0.113110 -0.437720 0.749010 -0.614450 0.050590 0.050590 0.050590 0.050590 0.050590 0.050590 0.050590 0.050590 0.050590

$$$$
