mom_tetramer.pdb
  -OEChem-09052515073D

197208  0     1  0  0  0  0  0999 V2000
   -2.6310    5.4670    0.8880 C   0  0  0  0  0  0  0  0  0  0  0  0
   -1.5080    4.6600    0.5600 O   0  0  0  0  0  0  0  0  0  0  0  0
   -1.7110    3.3130    0.4510 C   0  0  0  0  0  0  0  0  0  0  0  0
   -2.9110    2.6430    0.6550 C   0  0  0  0  0  0  0  0  0  0  0  0
   -2.9620    1.2470    0.5440 C   0  0  0  0  0  0  0  0  0  0  0  0
   -1.8240    0.4910    0.2000 C   0  0  0  0  0  0  0  0  0  0  0  0
   -1.9450   -0.9850    0.1340 C   0  0  0  0  0  0  0  0  0  0  0  0
   -2.8570   -1.6020   -0.7380 C   0  0  0  0  0  0  0  0  0  0  0  0
   -2.9660   -3.0010   -0.7980 C   0  0  0  0  0  0  0  0  0  0  0  0
   -4.0540   -3.5920   -1.6240 C   0  0  0  0  0  0  0  0  0  0  0  0
   -4.7560   -2.9470   -2.3850 O   0  0  0  0  0  0  0  0  0  0  0  0
   -2.1150   -3.7980   -0.0230 C   0  0  0  0  0  0  0  0  0  0  0  0
   -1.2020   -3.2030    0.8420 C   0  0  0  0  0  0  0  0  0  0  0  0
   -1.1410   -1.8120    0.9390 C   0  0  0  0  0  0  0  0  0  0  0  0
   -0.6040    1.1790   -0.0480 C   0  0  0  0  0  0  0  0  0  0  0  0
    0.6220    0.4680   -0.4670 C   0  0  0  0  0  0  0  0  0  0  0  0
    1.8170    0.5590    0.2830 C   0  0  0  0  0  0  0  0  0  0  0  0
    2.9370   -0.2410   -0.0170 C   0  0  0  0  0  0  0  0  0  0  0  0
    4.1940   -0.1580    0.8470 C   0  0  1  0  0  0  0  0  0  0  0  0
    4.4270   -1.4200    1.6720 C   0  0  0  0  0  0  0  0  0  0  0  0
    5.4290    0.2690    0.1800 N   0  0  0  0  0  0  0  0  0  0  0  0
    2.8130   -1.1630   -1.0590 C   0  0  0  0  0  0  0  0  0  0  0  0
    1.6820   -1.1980   -1.8690 C   0  0  0  0  0  0  0  0  0  0  0  0
    0.6050   -0.3760   -1.5800 C   0  0  0  0  0  0  0  0  0  0  0  0
   -0.5720    2.5810    0.1010 C   0  0  0  0  0  0  0  0  0  0  0  0
   -3.0410    5.2030    1.8690 H   0  0  0  0  0  0  0  0  0  0  0  0
   -3.3990    5.4100    0.1100 H   0  0  0  0  0  0  0  0  0  0  0  0
   -2.2880    6.5050    0.9420 H   0  0  0  0  0  0  0  0  0  0  0  0
   -3.8260    3.1650    0.9120 H   0  0  0  0  0  0  0  0  0  0  0  0
   -3.9040    0.7410    0.7440 H   0  0  0  0  0  0  0  0  0  0  0  0
   -3.5010   -0.9900   -1.3690 H   0  0  0  0  0  0  0  0  0  0  0  0
   -2.1710   -4.8830   -0.0640 H   0  0  0  0  0  0  0  0  0  0  0  0
   -0.5480   -3.8210    1.4510 H   0  0  0  0  0  0  0  0  0  0  0  0
   -0.4380   -1.3680    1.6420 H   0  0  0  0  0  0  0  0  0  0  0  0
    1.8490    1.2310    1.1360 H   0  0  0  0  0  0  0  0  0  0  0  0
    4.0160    0.6530    1.5710 H   0  0  0  0  0  0  0  0  0  0  0  0
    5.2490   -1.2650    2.3790 H   0  0  0  0  0  0  0  0  0  0  0  0
    3.5380   -1.6960    2.2480 H   0  0  0  0  0  0  0  0  0  0  0  0
    4.7020   -2.2740    1.0410 H   0  0  0  0  0  0  0  0  0  0  0  0
    6.0560    0.7220    0.8270 H   0  0  0  0  0  0  0  0  0  0  0  0
    3.6110   -1.8660   -1.2770 H   0  0  0  0  0  0  0  0  0  0  0  0
    1.6400   -1.8840   -2.7170 H   0  0  0  0  0  0  0  0  0  0  0  0
   -0.2890   -0.4420   -2.2130 H   0  0  0  0  0  0  0  0  0  0  0  0
    0.3570    3.1210   -0.0740 H   0  0  0  0  0  0  0  0  0  0  0  0
   11.2290   -6.4620   -6.0550 C   0  0  0  0  0  0  0  0  0  0  0  0
   11.2040   -6.6450   -4.6430 O   0  0  0  0  0  0  0  0  0  0  0  0
   10.6740   -5.6250   -3.9010 C   0  0  0  0  0  0  0  0  0  0  0  0
   10.1340   -4.4470   -4.4060 C   0  0  0  0  0  0  0  0  0  0  0  0
    9.6480   -3.4680   -3.5360 C   0  0  0  0  0  0  0  0  0  0  0  0
    9.6790   -3.6370   -2.1390 C   0  0  0  0  0  0  0  0  0  0  0  0
    9.2170   -2.5110   -1.2860 C   0  0  0  0  0  0  0  0  0  0  0  0
    7.9380   -1.9430   -1.4450 C   0  0  0  0  0  0  0  0  0  0  0  0
    7.4610   -0.9300   -0.5990 C   0  0  0  0  0  0  0  0  0  0  0  0
    6.0510   -0.4680   -0.8230 C   0  0  0  0  0  0  0  0  0  0  0  0
    5.5000   -0.7890   -1.8700 O   0  0  0  0  0  0  0  0  0  0  0  0
    8.2770   -0.4710    0.4380 C   0  0  0  0  0  0  0  0  0  0  0  0
    9.5680   -0.9910    0.5870 C   0  0  0  0  0  0  0  0  0  0  0  0
   10.0360   -1.9830   -0.2770 C   0  0  0  0  0  0  0  0  0  0  0  0
   10.1680   -4.8730   -1.6200 C   0  0  0  0  0  0  0  0  0  0  0  0
   10.1060   -5.1970   -0.1780 C   0  0  0  0  0  0  0  0  0  0  0  0
   11.2580   -5.5040    0.5710 C   0  0  0  0  0  0  0  0  0  0  0  0
   11.2130   -5.6520    1.9730 C   0  0  0  0  0  0  0  0  0  0  0  0
   12.4880   -5.9350    2.7460 C   0  0  1  0  0  0  0  0  0  0  0  0
   12.9160   -4.7450    3.6090 C   0  0  0  0  0  0  0  0  0  0  0  0
   12.5730   -7.1750    3.5330 N   0  0  0  0  0  0  0  0  0  0  0  0
    9.9870   -5.4230    2.6100 C   0  0  0  0  0  0  0  0  0  0  0  0
    8.8180   -5.2310    1.8790 C   0  0  0  0  0  0  0  0  0  0  0  0
    8.8750   -5.1480    0.4940 C   0  0  0  0  0  0  0  0  0  0  0  0
   10.6800   -5.8340   -2.5190 C   0  0  0  0  0  0  0  0  0  0  0  0
   11.8380   -5.5940   -6.3300 H   0  0  0  0  0  0  0  0  0  0  0  0
   10.2140   -6.3770   -6.4580 H   0  0  0  0  0  0  0  0  0  0  0  0
   11.6900   -7.3470   -6.5020 H   0  0  0  0  0  0  0  0  0  0  0  0
   10.0750   -4.2510   -5.4700 H   0  0  0  0  0  0  0  0  0  0  0  0
    9.2420   -2.5510   -3.9610 H   0  0  0  0  0  0  0  0  0  0  0  0
    7.2860   -2.3300   -2.2320 H   0  0  0  0  0  0  0  0  0  0  0  0
    7.9590    0.2800    1.1500 H   0  0  0  0  0  0  0  0  0  0  0  0
   10.2080   -0.6390    1.3930 H   0  0  0  0  0  0  0  0  0  0  0  0
   11.0460   -2.3660   -0.1410 H   0  0  0  0  0  0  0  0  0  0  0  0
   12.2150   -5.5830    0.0550 H   0  0  0  0  0  0  0  0  0  0  0  0
   13.2830   -6.0720    1.9990 H   0  0  0  0  0  0  0  0  0  0  0  0
   13.9270   -4.9130    4.0010 H   0  0  0  0  0  0  0  0  0  0  0  0
   12.9300   -3.8150    3.0320 H   0  0  0  0  0  0  0  0  0  0  0  0
   12.2530   -4.6080    4.4690 H   0  0  0  0  0  0  0  0  0  0  0  0
   13.5340   -7.4260    3.6890 H   0  0  0  0  0  0  0  0  0  0  0  0
    9.9160   -5.4170    3.6940 H   0  0  0  0  0  0  0  0  0  0  0  0
    7.8650   -5.1340    2.3920 H   0  0  0  0  0  0  0  0  0  0  0  0
    7.9540   -4.9910   -0.0620 H   0  0  0  0  0  0  0  0  0  0  0  0
   11.0660   -6.7780   -2.1380 H   0  0  0  0  0  0  0  0  0  0  0  0
    7.2630   -8.3900   12.8860 C   0  0  0  0  0  0  0  0  0  0  0  0
    8.4680   -7.6350   12.8420 O   0  0  0  0  0  0  0  0  0  0  0  0
    9.2120   -7.7330   11.6990 C   0  0  0  0  0  0  0  0  0  0  0  0
    8.9140   -8.5280   10.5980 C   0  0  0  0  0  0  0  0  0  0  0  0
    9.7860   -8.5700    9.5050 C   0  0  0  0  0  0  0  0  0  0  0  0
   10.9700   -7.8110    9.4770 C   0  0  0  0  0  0  0  0  0  0  0  0
   11.8810   -7.9640    8.3150 C   0  0  0  0  0  0  0  0  0  0  0  0
   11.4290   -7.7450    7.0040 C   0  0  0  0  0  0  0  0  0  0  0  0
   12.2870   -7.8460    5.8910 C   0  0  0  0  0  0  0  0  0  0  0  0
   11.7020   -7.4950    4.5610 C   0  0  0  0  0  0  0  0  0  0  0  0
   10.4810   -7.4670    4.4660 O   0  0  0  0  0  0  0  0  0  0  0  0
   13.6270   -8.1860    6.0940 C   0  0  0  0  0  0  0  0  0  0  0  0
   14.0920   -8.4210    7.3900 C   0  0  0  0  0  0  0  0  0  0  0  0
   13.2290   -8.3180    8.4830 C   0  0  0  0  0  0  0  0  0  0  0  0
   11.2430   -6.9470   10.5750 C   0  0  0  0  0  0  0  0  0  0  0  0
   12.4000   -6.0320   10.5810 C   0  0  0  0  0  0  0  0  0  0  0  0
   13.3910   -6.1030   11.5770 C   0  0  0  0  0  0  0  0  0  0  0  0
   14.5660   -5.3310   11.5020 C   0  0  0  0  0  0  0  0  0  0  0  0
   15.6360   -5.4780   12.5680 C   0  0  1  0  0  0  0  0  0  0  0  0
   16.9090   -6.1210   12.0060 C   0  0  0  0  0  0  0  0  0  0  0  0
   15.9810   -4.2940   13.3690 N   0  0  0  0  0  0  0  0  0  0  0  0
   14.7420   -4.5250   10.3690 C   0  0  0  0  0  0  0  0  0  0  0  0
   13.7350   -4.3750    9.4200 C   0  0  0  0  0  0  0  0  0  0  0  0
   12.5610   -5.1020    9.5430 C   0  0  0  0  0  0  0  0  0  0  0  0
   10.3650   -6.9450   11.6770 C   0  0  0  0  0  0  0  0  0  0  0  0
    7.4660   -9.4650   12.8280 H   0  0  0  0  0  0  0  0  0  0  0  0
    6.5730   -8.0740   12.0960 H   0  0  0  0  0  0  0  0  0  0  0  0
    6.7780   -8.1950   13.8480 H   0  0  0  0  0  0  0  0  0  0  0  0
    8.0190   -9.1380   10.5550 H   0  0  0  0  0  0  0  0  0  0  0  0
    9.5390   -9.2200    8.6670 H   0  0  0  0  0  0  0  0  0  0  0  0
   10.3890   -7.4540    6.8470 H   0  0  0  0  0  0  0  0  0  0  0  0
   14.3350   -8.2780    5.2800 H   0  0  0  0  0  0  0  0  0  0  0  0
   15.1370   -8.6730    7.5540 H   0  0  0  0  0  0  0  0  0  0  0  0
   13.6230   -8.4960    9.4810 H   0  0  0  0  0  0  0  0  0  0  0  0
   13.2600   -6.8050   12.3990 H   0  0  0  0  0  0  0  0  0  0  0  0
   15.2460   -6.1780   13.3180 H   0  0  0  0  0  0  0  0  0  0  0  0
   17.6310   -6.3020   12.8100 H   0  0  0  0  0  0  0  0  0  0  0  0
   16.6860   -7.0810   11.5280 H   0  0  0  0  0  0  0  0  0  0  0  0
   17.3970   -5.4770   11.2670 H   0  0  0  0  0  0  0  0  0  0  0  0
   16.3710   -4.5620   14.2570 H   0  0  0  0  0  0  0  0  0  0  0  0
   15.6640   -3.9730   10.2160 H   0  0  0  0  0  0  0  0  0  0  0  0
   13.8760   -3.6960    8.5840 H   0  0  0  0  0  0  0  0  0  0  0  0
   11.7810   -4.9770    8.7950 H   0  0  0  0  0  0  0  0  0  0  0  0
   10.5720   -6.3000   12.5300 H   0  0  0  0  0  0  0  0  0  0  0  0
   21.9500    3.6850    9.1440 C   0  0  0  0  0  0  0  0  0  0  0  0
   22.5630    2.4820    9.5820 O   0  0  0  0  0  0  0  0  0  0  0  0
   21.7990    1.6540   10.3570 C   0  0  0  0  0  0  0  0  0  0  0  0
   20.4740    1.8600   10.7230 C   0  0  0  0  0  0  0  0  0  0  0  0
   19.8160    0.9340   11.5410 C   0  0  0  0  0  0  0  0  0  0  0  0
   20.4570   -0.2250   12.0120 C   0  0  0  0  0  0  0  0  0  0  0  0
   19.7150   -1.1450   12.9090 C   0  0  0  0  0  0  0  0  0  0  0  0
   18.4810   -1.6940   12.5250 C   0  0  0  0  0  0  0  0  0  0  0  0
   17.7720   -2.5910   13.3540 C   0  0  0  0  0  0  0  0  0  0  0  0
   16.4870   -3.1270   12.8190 C   0  0  0  0  0  0  0  0  0  0  0  0
   15.9630   -2.5200   11.8930 O   0  0  0  0  0  0  0  0  0  0  0  0
   18.3240   -2.9640   14.5820 C   0  0  0  0  0  0  0  0  0  0  0  0
   19.5510   -2.4310   14.9810 C   0  0  0  0  0  0  0  0  0  0  0  0
   20.2240   -1.5170   14.1630 C   0  0  0  0  0  0  0  0  0  0  0  0
   21.7980   -0.4570   11.5950 C   0  0  0  0  0  0  0  0  0  0  0  0
   22.5160   -1.6960   11.9270 C   0  0  0  0  0  0  0  0  0  0  0  0
   23.7250   -1.6690   12.6510 C   0  0  0  0  0  0  0  0  0  0  0  0
   24.3810   -2.8540   13.0110 C   0  0  0  0  0  0  0  0  0  0  0  0
   25.6540   -2.8280   13.8440 C   0  0  1  0  0  0  0  0  0  0  0  0
   25.3630   -3.1580   15.3120 C   0  0  0  0  0  0  0  0  0  0  0  0
   26.7490   -3.6100   13.2550 N   0  0  0  0  0  0  0  0  0  0  0  0
   23.7850   -4.0580   12.6180 C   0  0  0  0  0  0  0  0  0  0  0  0
   22.6030   -4.1130   11.8890 C   0  0  0  0  0  0  0  0  0  0  0  0
   21.9800   -2.9330   11.5320 C   0  0  0  0  0  0  0  0  0  0  0  0
   22.4470    0.4970   10.7850 C   0  0  0  0  0  0  0  0  0  0  0  0
   21.6300    4.2980    9.9940 H   0  0  0  0  0  0  0  0  0  0  0  0
   21.1120    3.4710    8.4720 H   0  0  0  0  0  0  0  0  0  0  0  0
   22.6930    4.2580    8.5830 H   0  0  0  0  0  0  0  0  0  0  0  0
   19.9150    2.7290   10.3920 H   0  0  0  0  0  0  0  0  0  0  0  0
   18.7810    1.1280   11.8160 H   0  0  0  0  0  0  0  0  0  0  0  0
   18.0720   -1.4440   11.5470 H   0  0  0  0  0  0  0  0  0  0  0  0
   17.8290   -3.6540   15.2550 H   0  0  0  0  0  0  0  0  0  0  0  0
   19.9920   -2.7280   15.9280 H   0  0  0  0  0  0  0  0  0  0  0  0
   21.1720   -1.1090   14.5090 H   0  0  0  0  0  0  0  0  0  0  0  0
   24.1450   -0.7080   12.9440 H   0  0  0  0  0  0  0  0  0  0  0  0
   26.0430   -1.8000   13.8270 H   0  0  0  0  0  0  0  0  0  0  0  0
   26.2870   -3.1640   15.9010 H   0  0  0  0  0  0  0  0  0  0  0  0
   24.6790   -2.4250   15.7500 H   0  0  0  0  0  0  0  0  0  0  0  0
   24.8770   -4.1300   15.4330 H   0  0  0  0  0  0  0  0  0  0  0  0
   27.6520   -3.3060   13.5950 H   0  0  0  0  0  0  0  0  0  0  0  0
   24.2550   -4.9930   12.8610 H   0  0  0  0  0  0  0  0  0  0  0  0
   22.1830   -5.0710   11.5980 H   0  0  0  0  0  0  0  0  0  0  0  0
   21.0620   -2.9760   10.9510 H   0  0  0  0  0  0  0  0  0  0  0  0
   23.4710    0.3250   10.4550 H   0  0  0  0  0  0  0  0  0  0  0  0
   -5.4150   -5.5120   -1.7530 C   0  0  0  0  0  0  0  0  0  0  0  0
   -4.2130   -4.8960   -1.2910 O   0  0  0  0  0  0  0  0  0  0  0  0
   -6.1880   -5.3730   -0.9920 H   0  0  0  0  0  0  0  0  0  0  0  0
   -5.2260   -6.5830   -1.8630 H   0  0  0  0  0  0  0  0  0  0  0  0
   -5.7550   -5.1180   -2.7150 H   0  0  0  0  0  0  0  0  0  0  0  0
   25.5760   -7.1100   15.9010 C   0  0  0  0  0  0  0  0  0  0  0  0
   26.0320   -6.9540   14.4420 C   0  0  0  0  0  0  0  0  0  0  0  0
   27.2630   -7.8230   14.1920 C   0  0  0  0  0  0  0  0  0  0  0  0
   24.8620   -7.3650   13.5450 C   0  0  0  0  0  0  0  0  0  0  0  0
   26.3320   -5.5440   14.3160 O   0  0  0  0  0  0  0  0  0  0  0  0
   26.7480   -4.9770   13.1680 C   0  0  0  0  0  0  0  0  0  0  0  0
   27.0930   -5.5810   12.1630 O   0  0  0  0  0  0  0  0  0  0  0  0
   25.2950   -8.1410   16.1350 H   0  0  0  0  0  0  0  0  0  0  0  0
   26.3600   -6.7890   16.5960 H   0  0  0  0  0  0  0  0  0  0  0  0
   24.7100   -6.4670   16.0990 H   0  0  0  0  0  0  0  0  0  0  0  0
   28.1050   -7.4930   14.8090 H   0  0  0  0  0  0  0  0  0  0  0  0
   27.5940   -7.7690   13.1510 H   0  0  0  0  0  0  0  0  0  0  0  0
   27.0500   -8.8730   14.4150 H   0  0  0  0  0  0  0  0  0  0  0  0
   23.9770   -6.7610   13.7720 H   0  0  0  0  0  0  0  0  0  0  0  0
   25.0920   -7.2250   12.4840 H   0  0  0  0  0  0  0  0  0  0  0  0
   24.5780   -8.4090   13.7010 H   0  0  0  0  0  0  0  0  0  0  0  0
  1 28  1  0  0  0  0
  1 26  1  0  0  0  0
  1  2  1  0  0  0  0
  2  3  1  0  0  0  0
  3  4  2  0  0  0  0
  4 29  1  0  0  0  0
  4  5  1  0  0  0  0
  5 30  1  0  0  0  0
  5  6  2  0  0  0  0
  6  7  1  0  0  0  0
  7 14  1  0  0  0  0
  7  8  2  0  0  0  0
  8  9  1  0  0  0  0
  9 12  2  0  0  0  0
 10178  1  0  0  0  0
  9 10  1  0  0  0  0
 10 11  2  0  0  0  0
 12 13  1  0  0  0  0
 13 14  2  0  0  0  0
 13 33  1  0  0  0  0
 14 34  1  0  0  0  0
 15 25  2  0  0  0  0
  6 15  1  0  0  0  0
 15 16  1  0  0  0  0
 16 17  2  0  0  0  0
 17 35  1  0  0  0  0
 17 18  1  0  0  0  0
 18 19  1  0  0  0  0
 19 36  1  0  0  0  0
 19 20  1  0  0  0  0
 20 38  1  0  0  0  0
 20 37  1  0  0  0  0
 21 40  1  0  0  0  0
 19 21  1  0  0  0  0
 18 22  2  0  0  0  0
 23 24  2  0  0  0  0
 22 23  1  0  0  0  0
 16 24  1  0  0  0  0
  3 25  1  0  0  0  0
  1 27  1  0  0  0  0
  8 31  1  0  0  0  0
 12 32  1  0  0  0  0
 20 39  1  0  0  0  0
 22 41  1  0  0  0  0
 23 42  1  0  0  0  0
 24 43  1  0  0  0  0
 25 44  1  0  0  0  0
 45 46  1  0  0  0  0
 46 47  1  0  0  0  0
 47 69  2  0  0  0  0
 47 48  1  0  0  0  0
 48 49  2  0  0  0  0
 49 50  1  0  0  0  0
 50 59  2  0  0  0  0
 50 51  1  0  0  0  0
 51 58  1  0  0  0  0
 51 52  2  0  0  0  0
 52 53  1  0  0  0  0
 53 56  2  0  0  0  0
 53 54  1  0  0  0  0
 21 54  1  0  0  0  0
 54 55  2  0  0  0  0
 56 57  1  0  0  0  0
 56 76  1  0  0  0  0
 57 77  1  0  0  0  0
 58 78  1  0  0  0  0
 57 58  2  0  0  0  0
 59 60  1  0  0  0  0
 60 68  1  0  0  0  0
 60 61  2  0  0  0  0
 61 62  1  0  0  0  0
 62 66  2  0  0  0  0
 62 63  1  0  0  0  0
 63 80  1  0  0  0  0
 63 65  1  0  0  0  0
 63 64  1  0  0  0  0
 64 81  1  0  0  0  0
 64 83  1  0  0  0  0
 65 84  1  0  0  0  0
 65 98  1  0  0  0  0
 66 85  1  0  0  0  0
 67 86  1  0  0  0  0
 66 67  1  0  0  0  0
 67 68  2  0  0  0  0
 69 88  1  0  0  0  0
 59 69  1  0  0  0  0
 45 70  1  0  0  0  0
 45 71  1  0  0  0  0
 45 72  1  0  0  0  0
 48 73  1  0  0  0  0
 49 74  1  0  0  0  0
 52 75  1  0  0  0  0
 61 79  1  0  0  0  0
 64 82  1  0  0  0  0
 68 87  1  0  0  0  0
 89116  1  0  0  0  0
 89 90  1  0  0  0  0
 90 91  1  0  0  0  0
 91 92  2  0  0  0  0
 92 93  1  0  0  0  0
 93 94  2  0  0  0  0
 94103  1  0  0  0  0
 95102  1  0  0  0  0
 94 95  1  0  0  0  0
 95 96  2  0  0  0  0
 97100  2  0  0  0  0
 96 97  1  0  0  0  0
 97 98  1  0  0  0  0
 98 99  2  0  0  0  0
100101  1  0  0  0  0
101121  1  0  0  0  0
101102  2  0  0  0  0
102122  1  0  0  0  0
103104  1  0  0  0  0
103113  2  0  0  0  0
104105  2  0  0  0  0
105123  1  0  0  0  0
105106  1  0  0  0  0
106107  1  0  0  0  0
107124  1  0  0  0  0
107109  1  0  0  0  0
107108  1  0  0  0  0
108125  1  0  0  0  0
109128  1  0  0  0  0
106110  2  0  0  0  0
111112  2  0  0  0  0
110111  1  0  0  0  0
104112  1  0  0  0  0
 91113  1  0  0  0  0
113132  1  0  0  0  0
 89114  1  0  0  0  0
 89115  1  0  0  0  0
 92117  1  0  0  0  0
 93118  1  0  0  0  0
 96119  1  0  0  0  0
100120  1  0  0  0  0
108126  1  0  0  0  0
108127  1  0  0  0  0
110129  1  0  0  0  0
111130  1  0  0  0  0
112131  1  0  0  0  0
133134  1  0  0  0  0
133158  1  0  0  0  0
134135  1  0  0  0  0
135136  2  0  0  0  0
135157  1  0  0  0  0
136137  1  0  0  0  0
137162  1  0  0  0  0
137138  2  0  0  0  0
138139  1  0  0  0  0
139146  1  0  0  0  0
139140  2  0  0  0  0
140141  1  0  0  0  0
141144  2  0  0  0  0
141142  1  0  0  0  0
109142  1  0  0  0  0
142143  2  0  0  0  0
144145  1  0  0  0  0
144164  1  0  0  0  0
145165  1  0  0  0  0
146166  1  0  0  0  0
145146  2  0  0  0  0
147148  1  0  0  0  0
138147  1  0  0  0  0
148149  2  0  0  0  0
149167  1  0  0  0  0
149150  1  0  0  0  0
150151  1  0  0  0  0
151168  1  0  0  0  0
151152  1  0  0  0  0
152171  1  0  0  0  0
152170  1  0  0  0  0
152169  1  0  0  0  0
153172  1  0  0  0  0
151153  1  0  0  0  0
154173  1  0  0  0  0
150154  2  0  0  0  0
154155  1  0  0  0  0
155156  2  0  0  0  0
148156  1  0  0  0  0
147157  2  0  0  0  0
133159  1  0  0  0  0
133160  1  0  0  0  0
136161  1  0  0  0  0
140163  1  0  0  0  0
155174  1  0  0  0  0
156175  1  0  0  0  0
157176  1  0  0  0  0
177178  1  0  0  0  0
177179  1  0  0  0  0
177180  1  0  0  0  0
177181  1  0  0  0  0
182191  1  0  0  0  0
182189  1  0  0  0  0
182190  1  0  0  0  0
182183  1  0  0  0  0
184194  1  0  0  0  0
183184  1  0  0  0  0
184192  1  0  0  0  0
185197  1  0  0  0  0
185195  1  0  0  0  0
183185  1  0  0  0  0
183186  1  0  0  0  0
153187  1  0  0  0  0
186187  1  0  0  0  0
187188  2  0  0  0  0
184193  1  0  0  0  0
185196  1  0  0  0  0
M  END
> <atom.dprop.PartialCharge>
0.108960 -0.323790 0.122490 -0.205180 -0.083240 -0.069850 -0.048930 -0.058090 -0.131890 0.646440 -0.538020 -0.072830 -0.144720 -0.083140 0.013400 -0.054100 -0.112530 -0.103410 0.152650 -0.111230 -0.571800 -0.100530 -0.125690 -0.112900 -0.149840 0.045800 0.045800 0.045800 0.141670 0.140990 0.155310 0.153420 0.140480 0.140180 0.134240 0.087600 0.046150 0.046150 0.046150 0.308670 0.152550 0.144850 0.133940 0.153750 0.113520 -0.326280 0.128140 -0.204540 -0.085430 -0.070290 -0.038810 -0.061770 -0.139930 0.676580 -0.606600 -0.101830 -0.142630 -0.099330 0.011130 -0.049000 -0.105550 -0.115170 0.150300 -0.102820 -0.564690 -0.101630 -0.128810 -0.101980 -0.146810 0.044920 0.044920 0.044920 0.139780 0.137150 0.161320 0.137510 0.136470 0.132440 0.126670 0.086600 0.044810 0.044810 0.044810 0.304710 0.141940 0.138710 0.141280 0.156450 0.112610 -0.322550 0.127060 -0.147270 -0.084540 -0.067750 -0.038560 -0.062150 -0.138680 0.679660 -0.603410 -0.107780 -0.143830 -0.093860 0.008340 -0.046430 -0.114020 -0.092490 0.150250 -0.113320 -0.565950 -0.114880 -0.134800 -0.110560 -0.205710 0.045350 0.045350 0.045350 0.153310 0.141450 0.160100 0.130520 0.135830 0.138830 0.138460 0.087110 0.050750 0.050750 0.050750 0.307480 0.141030 0.137410 0.136500 0.143780 0.111060 -0.325140 0.123600 -0.204760 -0.084110 -0.070840 -0.043430 -0.093450 -0.141580 0.674760 -0.613510 -0.074620 -0.140830 -0.091740 0.005850 -0.046910 -0.106620 -0.114140 0.159530 -0.104960 -0.550320 -0.098100 -0.130990 -0.106160 -0.146550 0.045540 0.045540 0.045540 0.140560 0.140860 0.138470 0.156820 0.138990 0.139710 0.127120 0.091710 0.048070 0.048070 0.048070 0.324050 0.144230 0.135680 0.136420 0.158030 0.125870 -0.440250 0.051330 0.051330 0.051330 -0.113730 0.186230 -0.113730 -0.113730 -0.443110 0.749450 -0.603510 0.051310 0.051310 0.051310 0.051310 0.051310 0.051310 0.051310 0.051310 0.051310

$$$$
