pop_trimer.pdb
 OpenBabel02182611513D

153161  0  0  1  0  0  0  0  0999 V2000
   -2.0720   -4.5860   -1.5740 C   0  0  0  0  0  0  0  0  0  0  0  0
   -1.3720   -5.0250   -2.4770 O   0  0  0  0  0  0  0  0  0  0  0  0
   -2.2220   -3.1410   -1.2560 C   0  0  0  0  0  0  0  0  0  0  0  0
   -2.9940   -2.7080   -0.1700 C   0  0  0  0  0  0  0  0  0  0  0  0
   -2.9250   -1.3800    0.2590 C   0  0  0  0  0  0  0  0  0  0  0  0
   -2.1110   -0.4440   -0.4000 C   0  0  0  0  0  0  0  0  0  0  0  0
   -1.9780    0.9300    0.1370 C   0  0  0  0  0  0  0  0  0  0  0  0
   -0.7330    1.5000    0.5270 C   0  0  0  0  0  0  0  0  0  0  0  0
   -0.7280    2.8210    1.0330 C   0  0  0  0  0  0  0  0  0  0  0  0
   -1.8980    3.5760    1.1660 C   0  0  0  0  0  0  0  0  0  0  0  0
   -1.7260    4.8440    1.6480 O   0  0  0  0  0  0  0  0  0  0  0  0
   -2.8980    5.6400    1.7920 C   0  0  0  0  0  0  0  0  0  0  0  0
   -3.1120    3.0020    0.8140 C   0  0  0  0  0  0  0  0  0  0  0  0
   -3.1490    1.7020    0.3020 C   0  0  0  0  0  0  0  0  0  0  0  0
    0.5560    0.7700    0.4520 C   0  0  0  0  0  0  0  0  0  0  0  0
    1.6220    1.2580   -0.3230 C   0  0  0  0  0  0  0  0  0  0  0  0
    2.8210    0.5410   -0.4470 C   0  0  0  0  0  0  0  0  0  0  0  0
    2.9820   -0.6960    0.1860 C   0  0  0  0  0  0  0  0  0  0  0  0
    1.9390   -1.1680    0.9960 C   0  0  0  0  0  0  0  0  0  0  0  0
    0.7510   -0.4390    1.1370 C   0  0  0  0  0  0  0  0  0  0  0  0
    4.2210   -1.5440   -0.0290 C   0  0  2  0  0  0  0  0  0  0  0  0
    5.3920   -0.9670    0.6200 N   0  0  0  0  0  0  0  0  0  0  0  0
    4.3900   -1.9770   -1.4880 C   0  0  0  0  0  0  0  0  0  0  0  0
   -1.4150   -0.8720   -1.5440 C   0  0  0  0  0  0  0  0  0  0  0  0
   -1.4570   -2.2080   -1.9630 C   0  0  0  0  0  0  0  0  0  0  0  0
   -3.6110   -3.4060    0.3890 H   0  0  0  0  0  0  0  0  0  0  0  0
   -3.4760   -1.0910    1.1520 H   0  0  0  0  0  0  0  0  0  0  0  0
    0.2140    3.2680    1.3500 H   0  0  0  0  0  0  0  0  0  0  0  0
   -2.5960    6.6200    2.1740 H   0  0  0  0  0  0  0  0  0  0  0  0
   -3.5850    5.1960    2.5200 H   0  0  0  0  0  0  0  0  0  0  0  0
   -3.3960    5.7990    0.8290 H   0  0  0  0  0  0  0  0  0  0  0  0
   -4.0500    3.5350    0.9240 H   0  0  0  0  0  0  0  0  0  0  0  0
   -4.1180    1.2890    0.0230 H   0  0  0  0  0  0  0  0  0  0  0  0
    1.5170    2.1950   -0.8660 H   0  0  0  0  0  0  0  0  0  0  0  0
    3.6200    0.9410   -1.0700 H   0  0  0  0  0  0  0  0  0  0  0  0
    2.0280   -2.1270    1.5020 H   0  0  0  0  0  0  0  0  0  0  0  0
   -0.0410   -0.8410    1.7640 H   0  0  0  0  0  0  0  0  0  0  0  0
    4.0790   -2.4790    0.5300 H   0  0  0  0  0  0  0  0  0  0  0  0
    5.3410   -0.9100    1.6250 H   0  0  0  0  0  0  0  0  0  0  0  0
    3.5270   -2.5700   -1.8110 H   0  0  0  0  0  0  0  0  0  0  0  0
    4.4720   -1.1290   -2.1750 H   0  0  0  0  0  0  0  0  0  0  0  0
    5.2860   -2.5960   -1.6100 H   0  0  0  0  0  0  0  0  0  0  0  0
   -0.7870   -0.1740   -2.0950 H   0  0  0  0  0  0  0  0  0  0  0  0
   -0.8510   -2.5230   -2.8110 H   0  0  0  0  0  0  0  0  0  0  0  0
    6.4620   -0.3670   -0.0090 C   0  0  0  0  0  0  0  0  0  0  0  0
    6.4850   -0.0570   -1.1940 O   0  0  0  0  0  0  0  0  0  0  0  0
    7.6740   -0.1350    0.8370 C   0  0  0  0  0  0  0  0  0  0  0  0
    7.8960   -0.8720    2.0050 C   0  0  0  0  0  0  0  0  0  0  0  0
    9.0720   -0.6990    2.7350 C   0  0  0  0  0  0  0  0  0  0  0  0
   10.0680    0.1930    2.3050 C   0  0  0  0  0  0  0  0  0  0  0  0
   11.3200    0.2990    3.0750 C   0  0  0  0  0  0  0  0  0  0  0  0
   12.5670   -0.1890    2.6020 C   0  0  0  0  0  0  0  0  0  0  0  0
   13.6920   -0.0710    3.4440 C   0  0  0  0  0  0  0  0  0  0  0  0
   13.6080    0.5000    4.7200 C   0  0  0  0  0  0  0  0  0  0  0  0
   14.7840    0.5190    5.4160 O   0  0  0  0  0  0  0  0  0  0  0  0
   14.7380    1.0520    6.7340 C   0  0  0  0  0  0  0  0  0  0  0  0
   12.3850    0.9810    5.1720 C   0  0  0  0  0  0  0  0  0  0  0  0
   11.2560    0.8770    4.3600 C   0  0  0  0  0  0  0  0  0  0  0  0
   12.7260   -0.8320    1.2780 C   0  0  0  0  0  0  0  0  0  0  0  0
   13.5990   -0.3040    0.3140 C   0  0  0  0  0  0  0  0  0  0  0  0
   13.6980   -0.8640   -0.9690 C   0  0  0  0  0  0  0  0  0  0  0  0
   12.9080   -1.9620   -1.3300 C   0  0  0  0  0  0  0  0  0  0  0  0
   12.0730   -2.5250   -0.3530 C   0  0  0  0  0  0  0  0  0  0  0  0
   11.9940   -1.9760    0.9310 C   0  0  0  0  0  0  0  0  0  0  0  0
   12.8940   -2.5150   -2.7430 C   0  0  2  0  0  0  0  0  0  0  0  0
   14.1190   -3.2360   -3.0630 N   0  0  0  0  0  0  0  0  0  0  0  0
   12.4230   -1.4960   -3.7850 C   0  0  0  0  0  0  0  0  0  0  0  0
    9.8440    0.9270    1.1300 C   0  0  0  0  0  0  0  0  0  0  0  0
    8.6590    0.7600    0.3980 C   0  0  0  0  0  0  0  0  0  0  0  0
    7.1930   -1.6270    2.3440 H   0  0  0  0  0  0  0  0  0  0  0  0
    9.2320   -1.3010    3.6290 H   0  0  0  0  0  0  0  0  0  0  0  0
   14.6570   -0.4490    3.1100 H   0  0  0  0  0  0  0  0  0  0  0  0
   15.7450    0.9890    7.1550 H   0  0  0  0  0  0  0  0  0  0  0  0
   14.0720    0.4640    7.3750 H   0  0  0  0  0  0  0  0  0  0  0  0
   14.4460    2.1070    6.7200 H   0  0  0  0  0  0  0  0  0  0  0  0
   12.2680    1.4380    6.1480 H   0  0  0  0  0  0  0  0  0  0  0  0
   10.3050    1.2510    4.7390 H   0  0  0  0  0  0  0  0  0  0  0  0
   14.1940    0.5780    0.5450 H   0  0  0  0  0  0  0  0  0  0  0  0
   14.3740   -0.4130   -1.6940 H   0  0  0  0  0  0  0  0  0  0  0  0
   11.4450   -3.3820   -0.5880 H   0  0  0  0  0  0  0  0  0  0  0  0
   11.3230   -2.4340    1.6550 H   0  0  0  0  0  0  0  0  0  0  0  0
   12.1400   -3.3130   -2.7690 H   0  0  0  0  0  0  0  0  0  0  0  0
   14.2710   -4.0810   -2.5330 H   0  0  0  0  0  0  0  0  0  0  0  0
   11.4040   -1.1610   -3.5630 H   0  0  0  0  0  0  0  0  0  0  0  0
   13.0550   -0.6030   -3.8120 H   0  0  0  0  0  0  0  0  0  0  0  0
   12.4150   -1.9370   -4.7880 H   0  0  0  0  0  0  0  0  0  0  0  0
   10.6030    1.6150    0.7620 H   0  0  0  0  0  0  0  0  0  0  0  0
    8.5230    1.3110   -0.5310 H   0  0  0  0  0  0  0  0  0  0  0  0
   15.1460   -2.7930   -3.8640 C   0  0  0  0  0  0  0  0  0  0  0  0
   15.2470   -1.6550   -4.3050 O   0  0  0  0  0  0  0  0  0  0  0  0
   16.1790   -3.8170   -4.2080 C   0  0  0  0  0  0  0  0  0  0  0  0
   15.8850   -5.1870   -4.1960 C   0  0  0  0  0  0  0  0  0  0  0  0
   16.8570   -6.1170   -4.5670 C   0  0  0  0  0  0  0  0  0  0  0  0
   18.1310   -5.7020   -4.9870 C   0  0  0  0  0  0  0  0  0  0  0  0
   19.0950   -6.7050   -5.4740 C   0  0  0  0  0  0  0  0  0  0  0  0
   19.4070   -6.8520   -6.8510 C   0  0  0  0  0  0  0  0  0  0  0  0
   20.2950   -7.8780   -7.2330 C   0  0  0  0  0  0  0  0  0  0  0  0
   20.8690   -8.7450   -6.2970 C   0  0  0  0  0  0  0  0  0  0  0  0
   21.7000   -9.6930   -6.8270 O   0  0  0  0  0  0  0  0  0  0  0  0
   22.2410  -10.6570   -5.9300 C   0  0  0  0  0  0  0  0  0  0  0  0
   20.5670   -8.5860   -4.9490 C   0  0  0  0  0  0  0  0  0  0  0  0
   19.6860   -7.5800   -4.5440 C   0  0  0  0  0  0  0  0  0  0  0  0
   18.8020   -5.9910   -7.8880 C   0  0  0  0  0  0  0  0  0  0  0  0
   19.5890   -5.1620   -8.7030 C   0  0  0  0  0  0  0  0  0  0  0  0
   19.0020   -4.3250   -9.6600 C   0  0  0  0  0  0  0  0  0  0  0  0
   17.6090   -4.2920   -9.8130 C   0  0  0  0  0  0  0  0  0  0  0  0
   16.8200   -5.1110   -8.9990 C   0  0  0  0  0  0  0  0  0  0  0  0
   17.4110   -5.9660   -8.0710 C   0  0  0  0  0  0  0  0  0  0  0  0
   16.9390   -3.5020  -10.9220 C   0  0  2  0  0  0  0  0  0  0  0  0
   17.3900   -3.9640  -12.2250 N   0  0  0  0  0  0  0  0  0  0  0  0
   17.1580   -2.0000  -10.7510 C   0  0  0  0  0  0  0  0  0  0  0  0
   18.4180   -4.3280   -4.9980 C   0  0  0  0  0  0  0  0  0  0  0  0
   17.4470   -3.3920   -4.6190 C   0  0  0  0  0  0  0  0  0  0  0  0
   14.8950   -5.5550   -3.9460 H   0  0  0  0  0  0  0  0  0  0  0  0
   16.6010   -7.1750   -4.5770 H   0  0  0  0  0  0  0  0  0  0  0  0
   20.5290   -8.0220   -8.2870 H   0  0  0  0  0  0  0  0  0  0  0  0
   22.8830  -11.3270   -6.5090 H   0  0  0  0  0  0  0  0  0  0  0  0
   21.4500  -11.2630   -5.4760 H   0  0  0  0  0  0  0  0  0  0  0  0
   22.8640  -10.1830   -5.1640 H   0  0  0  0  0  0  0  0  0  0  0  0
   20.9960   -9.2280   -4.1860 H   0  0  0  0  0  0  0  0  0  0  0  0
   19.4510   -7.4800   -3.4850 H   0  0  0  0  0  0  0  0  0  0  0  0
   20.6720   -5.1650   -8.6040 H   0  0  0  0  0  0  0  0  0  0  0  0
   19.6430   -3.7300  -10.3040 H   0  0  0  0  0  0  0  0  0  0  0  0
   15.7390   -5.1290   -9.1200 H   0  0  0  0  0  0  0  0  0  0  0  0
   16.7710   -6.6240   -7.4900 H   0  0  0  0  0  0  0  0  0  0  0  0
   15.8560   -3.6840  -10.8960 H   0  0  0  0  0  0  0  0  0  0  0  0
   17.7890   -3.3250  -12.8930 H   0  0  0  0  0  0  0  0  0  0  0  0
   16.7660   -1.6560   -9.7870 H   0  0  0  0  0  0  0  0  0  0  0  0
   18.2190   -1.7280  -10.7950 H   0  0  0  0  0  0  0  0  0  0  0  0
   16.6450   -1.4470  -11.5430 H   0  0  0  0  0  0  0  0  0  0  0  0
   19.3910   -3.9760   -5.3340 H   0  0  0  0  0  0  0  0  0  0  0  0
   17.6790   -2.3300   -4.6640 H   0  0  0  0  0  0  0  0  0  0  0  0
   -2.1760   -6.6200   -0.3780 C   0  0  0  0  0  0  0  0  0  0  0  0
   -2.6840   -5.3070   -0.6040 O   0  0  0  0  0  0  0  0  0  0  0  0
   -1.6840   -7.0550   -1.2500 H   0  0  0  0  0  0  0  0  0  0  0  0
   -3.0050   -7.2650   -0.0760 H   0  0  0  0  0  0  0  0  0  0  0  0
   -1.4680   -6.5560    0.4550 H   0  0  0  0  0  0  0  0  0  0  0  0
   18.6300   -6.5670  -15.7550 C   0  0  0  0  0  0  0  0  0  0  0  0
   18.0680   -6.7710  -14.3390 C   0  0  0  0  0  0  0  0  0  0  0  0
   16.7620   -7.5720  -14.4460 C   0  0  0  0  0  0  0  0  0  0  0  0
   19.1160   -7.4970  -13.4830 C   0  0  0  0  0  0  0  0  0  0  0  0
   17.8580   -5.4270  -13.8230 O   0  0  0  0  0  0  0  0  0  0  0  0
   17.2530   -5.2590  -12.6210 C   0  0  0  0  0  0  0  0  0  0  0  0
   16.6980   -6.1430  -11.9790 O   0  0  0  0  0  0  0  0  0  0  0  0
   18.8150   -7.5210  -16.2600 H   0  0  0  0  0  0  0  0  0  0  0  0
   17.9330   -5.9810  -16.3680 H   0  0  0  0  0  0  0  0  0  0  0  0
   19.5680   -6.0030  -15.7360 H   0  0  0  0  0  0  0  0  0  0  0  0
   15.9550   -6.9470  -14.8410 H   0  0  0  0  0  0  0  0  0  0  0  0
   16.4310   -7.9510  -13.4740 H   0  0  0  0  0  0  0  0  0  0  0  0
   16.8780   -8.4490  -15.0940 H   0  0  0  0  0  0  0  0  0  0  0  0
   20.0280   -6.8950  -13.4030 H   0  0  0  0  0  0  0  0  0  0  0  0
   18.7670   -7.6600  -12.4580 H   0  0  0  0  0  0  0  0  0  0  0  0
   19.3760   -8.4740  -13.9050 H   0  0  0  0  0  0  0  0  0  0  0  0
  1  3  1  0  0  0  0
  1134  1  0  0  0  0
  2  1  2  0  0  0  0
  3  4  1  0  0  0  0
  4  5  2  0  0  0  0
  4 26  1  0  0  0  0
  5 27  1  0  0  0  0
  6  7  1  0  0  0  0
  6  5  1  0  0  0  0
  7 14  2  0  0  0  0
  7  8  1  0  0  0  0
  8  9  2  0  0  0  0
  9 10  1  0  0  0  0
  9 28  1  0  0  0  0
 10 11  1  0  0  0  0
 11 12  1  0  0  0  0
 12 29  1  0  0  0  0
 12 30  1  0  0  0  0
 13 32  1  0  0  0  0
 13 10  2  0  0  0  0
 14 13  1  0  0  0  0
 15  8  1  0  0  0  0
 15 20  1  0  0  0  0
 16 15  2  0  0  0  0
 17 16  1  0  0  0  0
 17 18  2  0  0  0  0
 18 19  1  0  0  0  0
 19 20  2  0  0  0  0
 19 36  1  0  0  0  0
 20 37  1  0  0  0  0
 21 18  1  0  0  0  0
 21 38  1  1  0  0  0
 21 22  1  0  0  0  0
 22 39  1  0  0  0  0
 23 21  1  0  0  0  0
 24  6  2  0  0  0  0
 25 24  1  0  0  0  0
 25  3  2  0  0  0  0
 31 12  1  0  0  0  0
 33 14  1  0  0  0  0
 34 16  1  0  0  0  0
 35 17  1  0  0  0  0
 40 23  1  0  0  0  0
 41 23  1  0  0  0  0
 42 23  1  0  0  0  0
 43 24  1  0  0  0  0
 44 25  1  0  0  0  0
 45 22  1  0  0  0  0
 45 47  1  0  0  0  0
 46 45  2  0  0  0  0
 47 48  1  0  0  0  0
 48 70  1  0  0  0  0
 48 49  2  0  0  0  0
 49 71  1  0  0  0  0
 50 49  1  0  0  0  0
 50 51  1  0  0  0  0
 51 58  1  0  0  0  0
 52 51  2  0  0  0  0
 52 53  1  0  0  0  0
 53 54  2  0  0  0  0
 54 57  1  0  0  0  0
 54 55  1  0  0  0  0
 55 56  1  0  0  0  0
 56 73  1  0  0  0  0
 56 74  1  0  0  0  0
 57 76  1  0  0  0  0
 58 77  1  0  0  0  0
 58 57  2  0  0  0  0
 59 52  1  0  0  0  0
 60 78  1  0  0  0  0
 60 59  2  0  0  0  0
 61 60  1  0  0  0  0
 62 61  2  0  0  0  0
 62 63  1  0  0  0  0
 63 64  2  0  0  0  0
 64 59  1  0  0  0  0
 64 81  1  0  0  0  0
 65 82  1  1  0  0  0
 65 62  1  0  0  0  0
 66 65  1  0  0  0  0
 66 83  1  0  0  0  0
 67 84  1  0  0  0  0
 67 65  1  0  0  0  0
 68 50  2  0  0  0  0
 69 47  2  0  0  0  0
 69 68  1  0  0  0  0
 72 53  1  0  0  0  0
 75 56  1  0  0  0  0
 79 61  1  0  0  0  0
 80 63  1  0  0  0  0
 85 67  1  0  0  0  0
 86 67  1  0  0  0  0
 87 68  1  0  0  0  0
 88 69  1  0  0  0  0
 89 66  1  0  0  0  0
 90 89  2  0  0  0  0
 91 92  1  0  0  0  0
 91 89  1  0  0  0  0
 92114  1  0  0  0  0
 93 92  2  0  0  0  0
 94 93  1  0  0  0  0
 95 94  1  0  0  0  0
 95102  1  0  0  0  0
 96 95  2  0  0  0  0
 97 96  1  0  0  0  0
 97 98  2  0  0  0  0
 98101  1  0  0  0  0
 99 98  1  0  0  0  0
 99100  1  0  0  0  0
100118  1  0  0  0  0
100119  1  0  0  0  0
101102  2  0  0  0  0
101120  1  0  0  0  0
102121  1  0  0  0  0
103 96  1  0  0  0  0
104122  1  0  0  0  0
104103  2  0  0  0  0
105104  1  0  0  0  0
106105  2  0  0  0  0
106107  1  0  0  0  0
107108  2  0  0  0  0
108103  1  0  0  0  0
108125  1  0  0  0  0
109126  1  1  0  0  0
109111  1  0  0  0  0
109106  1  0  0  0  0
110109  1  0  0  0  0
111128  1  0  0  0  0
112 94  2  0  0  0  0
112113  1  0  0  0  0
113 91  2  0  0  0  0
115 93  1  0  0  0  0
116 97  1  0  0  0  0
117100  1  0  0  0  0
123105  1  0  0  0  0
124107  1  0  0  0  0
127110  1  0  0  0  0
129111  1  0  0  0  0
130111  1  0  0  0  0
131112  1  0  0  0  0
132113  1  0  0  0  0
133136  1  0  0  0  0
133137  1  0  0  0  0
134133  1  0  0  0  0
135133  1  0  0  0  0
138147  1  0  0  0  0
138139  1  0  0  0  0
139142  1  0  0  0  0
139141  1  0  0  0  0
140139  1  0  0  0  0
140149  1  0  0  0  0
141151  1  0  0  0  0
141152  1  0  0  0  0
142143  1  0  0  0  0
143110  1  0  0  0  0
143144  2  0  0  0  0
145138  1  0  0  0  0
146138  1  0  0  0  0
148140  1  0  0  0  0
150140  1  0  0  0  0
153141  1  0  0  0  0
M  END
