pmp_tetramer.pdb
 OpenBabel11202513563D

197208  0  0  1  0  0  0  0  0999 V2000
   -0.8540    4.3960   -0.4140 C   0  0  0  0  0  0  0  0  0  0  0  0
   -0.5140    3.6220    0.7450 O   0  0  0  0  0  0  0  0  0  0  0  0
   -0.2750    2.3010    0.4900 C   0  0  0  0  0  0  0  0  0  0  0  0
    0.8520    1.6840    1.0270 C   0  0  0  0  0  0  0  0  0  0  0  0
    1.2220    0.3850    0.6410 C   0  0  0  0  0  0  0  0  0  0  0  0
    2.5030   -0.2070    1.0650 C   0  0  0  0  0  0  0  0  0  0  0  0
    3.6980    0.0470    0.3680 C   0  0  0  0  0  0  0  0  0  0  0  0
    4.9000   -0.5790    0.7320 C   0  0  0  0  0  0  0  0  0  0  0  0
    4.9290   -1.4870    1.7970 C   0  0  0  0  0  0  0  0  0  0  0  0
    6.2010   -2.2090    2.0820 C   0  0  0  0  0  0  0  0  0  0  0  0
    7.2700   -1.9490    1.5430 O   0  0  0  0  0  0  0  0  0  0  0  0
    3.7530   -1.7180    2.5220 C   0  0  0  0  0  0  0  0  0  0  0  0
    2.5550   -1.0830    2.1580 C   0  0  0  0  0  0  0  0  0  0  0  0
    0.3390   -0.3310   -0.1880 C   0  0  0  0  0  0  0  0  0  0  0  0
   -0.8880    0.2180   -0.6070 C   0  0  0  0  0  0  0  0  0  0  0  0
   -1.9460   -0.5550   -1.2830 C   0  0  0  0  0  0  0  0  0  0  0  0
   -2.1580   -1.9050   -0.9890 C   0  0  0  0  0  0  0  0  0  0  0  0
   -3.3650   -2.5270   -1.3240 C   0  0  0  0  0  0  0  0  0  0  0  0
   -4.4070   -1.8070   -1.9260 C   0  0  0  0  0  0  0  0  0  0  0  0
   -5.8150   -2.3700   -2.0510 C   0  0  1  0  0  0  0  0  0  0  0  0
   -6.2490   -3.4410   -1.0300 C   0  0  0  0  0  0  0  0  0  0  0  0
   -6.8770   -1.3540   -2.1680 N   0  0  0  0  0  0  0  0  0  0  0  0
   -4.1050   -0.5310   -2.4160 C   0  0  0  0  0  0  0  0  0  0  0  0
   -2.8950    0.0810   -2.1010 C   0  0  0  0  0  0  0  0  0  0  0  0
   -1.1630    1.5460   -0.2500 C   0  0  0  0  0  0  0  0  0  0  0  0
    0.0050    4.9950   -0.7220 H   0  0  0  0  0  0  0  0  0  0  0  0
   -1.1780    3.8220   -1.2880 H   0  0  0  0  0  0  0  0  0  0  0  0
   -1.6510    5.0930   -0.1430 H   0  0  0  0  0  0  0  0  0  0  0  0
    1.4860    2.2410    1.7010 H   0  0  0  0  0  0  0  0  0  0  0  0
    3.7040    0.7130   -0.4900 H   0  0  0  0  0  0  0  0  0  0  0  0
    5.8060   -0.3780    0.1610 H   0  0  0  0  0  0  0  0  0  0  0  0
    3.7440   -2.4040    3.3640 H   0  0  0  0  0  0  0  0  0  0  0  0
    1.6520   -1.2940    2.7250 H   0  0  0  0  0  0  0  0  0  0  0  0
    0.6090   -1.3440   -0.4810 H   0  0  0  0  0  0  0  0  0  0  0  0
   -1.4320   -2.4710   -0.4120 H   0  0  0  0  0  0  0  0  0  0  0  0
   -3.4840   -3.5670   -1.0340 H   0  0  0  0  0  0  0  0  0  0  0  0
   -5.8130   -2.8670   -3.0310 H   0  0  0  0  0  0  0  0  0  0  0  0
   -5.4410   -3.8360   -0.4110 H   0  0  0  0  0  0  0  0  0  0  0  0
   -7.0240   -3.0730   -0.3480 H   0  0  0  0  0  0  0  0  0  0  0  0
   -6.6900   -4.2940   -1.5570 H   0  0  0  0  0  0  0  0  0  0  0  0
   -7.5540   -1.5390   -2.8980 H   0  0  0  0  0  0  0  0  0  0  0  0
   -4.8450    0.0470   -2.9670 H   0  0  0  0  0  0  0  0  0  0  0  0
   -2.7500    1.1110   -2.4250 H   0  0  0  0  0  0  0  0  0  0  0  0
   -2.1170    1.9980   -0.5080 H   0  0  0  0  0  0  0  0  0  0  0  0
   -2.6190    6.0940    3.0590 C   0  0  0  0  0  0  0  0  0  0  0  0
   -2.2330    5.1070    4.0040 O   0  0  0  0  0  0  0  0  0  0  0  0
   -2.8070    3.8690    3.8960 C   0  0  0  0  0  0  0  0  0  0  0  0
   -3.6430    3.4280    2.8630 C   0  0  0  0  0  0  0  0  0  0  0  0
   -4.1990    2.1360    2.8910 C   0  0  0  0  0  0  0  0  0  0  0  0
   -5.0120    1.5620    1.7930 C   0  0  0  0  0  0  0  0  0  0  0  0
   -5.8410    2.3180    0.9550 C   0  0  0  0  0  0  0  0  0  0  0  0
   -6.5740    1.7050   -0.0790 C   0  0  0  0  0  0  0  0  0  0  0  0
   -6.5150    0.3170   -0.2920 C   0  0  0  0  0  0  0  0  0  0  0  0
   -7.2830   -0.2620   -1.4320 C   0  0  0  0  0  0  0  0  0  0  0  0
   -8.3090    0.3080   -1.7880 O   0  0  0  0  0  0  0  0  0  0  0  0
   -5.7510   -0.4430    0.5780 C   0  0  0  0  0  0  0  0  0  0  0  0
   -4.9810    0.1740    1.5620 C   0  0  0  0  0  0  0  0  0  0  0  0
   -3.9140    1.3360    4.0160 C   0  0  0  0  0  0  0  0  0  0  0  0
   -3.0370    1.7220    5.0310 C   0  0  0  0  0  0  0  0  0  0  0  0
   -2.7450    0.7870    6.1280 C   0  0  0  0  0  0  0  0  0  0  0  0
   -3.7920    0.1950    6.8530 C   0  0  0  0  0  0  0  0  0  0  0  0
   -3.5370   -0.6500    7.9340 C   0  0  0  0  0  0  0  0  0  0  0  0
   -2.2200   -0.9190    8.3350 C   0  0  0  0  0  0  0  0  0  0  0  0
   -1.9970   -1.5450    9.7090 C   0  0  1  0  0  0  0  0  0  0  0  0
   -0.7860   -2.4760    9.8020 C   0  0  0  0  0  0  0  0  0  0  0  0
   -2.0440   -0.4640   10.7100 N   0  0  0  0  0  0  0  0  0  0  0  0
   -1.1700   -0.4050    7.5600 C   0  0  0  0  0  0  0  0  0  0  0  0
   -1.4320    0.4400    6.4720 C   0  0  0  0  0  0  0  0  0  0  0  0
   -2.4830    3.0010    4.9460 C   0  0  0  0  0  0  0  0  0  0  0  0
   -3.7030    6.2450    3.0540 H   0  0  0  0  0  0  0  0  0  0  0  0
   -2.1540    7.0390    3.3560 H   0  0  0  0  0  0  0  0  0  0  0  0
   -2.2490    5.8420    2.0620 H   0  0  0  0  0  0  0  0  0  0  0  0
   -3.8420    4.0710    2.0130 H   0  0  0  0  0  0  0  0  0  0  0  0
   -5.9380    3.3930    1.0910 H   0  0  0  0  0  0  0  0  0  0  0  0
   -7.1970    2.3240   -0.7230 H   0  0  0  0  0  0  0  0  0  0  0  0
   -5.7020   -1.5170    0.5180 H   0  0  0  0  0  0  0  0  0  0  0  0
   -4.3310   -0.4750    2.1470 H   0  0  0  0  0  0  0  0  0  0  0  0
   -4.3690    0.3510    4.1010 H   0  0  0  0  0  0  0  0  0  0  0  0
   -4.8270    0.4240    6.6040 H   0  0  0  0  0  0  0  0  0  0  0  0
   -4.3790   -1.0430    8.5010 H   0  0  0  0  0  0  0  0  0  0  0  0
   -2.8740   -2.1690    9.9290 H   0  0  0  0  0  0  0  0  0  0  0  0
   -0.8530   -3.2730    9.0520 H   0  0  0  0  0  0  0  0  0  0  0  0
    0.1640   -1.9560    9.6420 H   0  0  0  0  0  0  0  0  0  0  0  0
   -0.7390   -2.9470   10.7900 H   0  0  0  0  0  0  0  0  0  0  0  0
   -2.8510    0.1190   10.5530 H   0  0  0  0  0  0  0  0  0  0  0  0
   -0.1320   -0.5730    7.8410 H   0  0  0  0  0  0  0  0  0  0  0  0
   -0.5940    0.8630    5.9200 H   0  0  0  0  0  0  0  0  0  0  0  0
   -1.8000    3.3540    5.7100 H   0  0  0  0  0  0  0  0  0  0  0  0
    0.3020    8.7540    8.2230 C   0  0  0  0  0  0  0  0  0  0  0  0
    0.7780    8.2610    6.9790 O   0  0  0  0  0  0  0  0  0  0  0  0
    0.8300    6.9020    6.8310 C   0  0  0  0  0  0  0  0  0  0  0  0
    0.4150    5.9580    7.7640 C   0  0  0  0  0  0  0  0  0  0  0  0
    0.5340    4.5850    7.4940 C   0  0  0  0  0  0  0  0  0  0  0  0
    0.0970    3.6230    8.5230 C   0  0  0  0  0  0  0  0  0  0  0  0
    0.9990    3.1160    9.4680 C   0  0  0  0  0  0  0  0  0  0  0  0
    0.6170    2.1050   10.3610 C   0  0  0  0  0  0  0  0  0  0  0  0
   -0.6780    1.5720   10.3280 C   0  0  0  0  0  0  0  0  0  0  0  0
   -0.8860    0.2420   11.0000 C   0  0  0  0  0  0  0  0  0  0  0  0
    0.0010   -0.2440   11.6950 O   0  0  0  0  0  0  0  0  0  0  0  0
   -1.6270    2.1920    9.5130 C   0  0  0  0  0  0  0  0  0  0  0  0
   -1.2400    3.2060    8.6190 C   0  0  0  0  0  0  0  0  0  0  0  0
    1.0680    4.1780    6.2380 C   0  0  0  0  0  0  0  0  0  0  0  0
    1.4690    5.1160    5.2600 C   0  0  0  0  0  0  0  0  0  0  0  0
    1.9710    4.7800    3.8950 C   0  0  0  0  0  0  0  0  0  0  0  0
    3.0620    3.9350    3.6470 C   0  0  0  0  0  0  0  0  0  0  0  0
    3.5660    3.7380    2.3360 C   0  0  0  0  0  0  0  0  0  0  0  0
    2.9990    4.3700    1.2130 C   0  0  0  0  0  0  0  0  0  0  0  0
    3.5520    4.1440   -0.2040 C   0  0  1  0  0  0  0  0  0  0  0  0
    2.6300    3.4240   -1.1930 C   0  0  0  0  0  0  0  0  0  0  0  0
    4.0410    5.4150   -0.6990 N   0  0  0  0  0  0  0  0  0  0  0  0
    1.9340    5.2430    1.4660 C   0  0  0  0  0  0  0  0  0  0  0  0
    1.4150    5.4150    2.7670 C   0  0  0  0  0  0  0  0  0  0  0  0
    1.3510    6.4740    5.6070 C   0  0  0  0  0  0  0  0  0  0  0  0
    0.9380    8.4190    9.0490 H   0  0  0  0  0  0  0  0  0  0  0  0
    0.3500    9.8460    8.1870 H   0  0  0  0  0  0  0  0  0  0  0  0
   -0.7430    8.4700    8.3850 H   0  0  0  0  0  0  0  0  0  0  0  0
   -0.0080    6.2590    8.7180 H   0  0  0  0  0  0  0  0  0  0  0  0
    2.0250    3.4780    9.4910 H   0  0  0  0  0  0  0  0  0  0  0  0
    1.3610    1.6860   11.0370 H   0  0  0  0  0  0  0  0  0  0  0  0
   -2.6580    1.8540    9.4670 H   0  0  0  0  0  0  0  0  0  0  0  0
   -1.9910    3.6250    7.9540 H   0  0  0  0  0  0  0  0  0  0  0  0
    1.1380    3.1130    6.0150 H   0  0  0  0  0  0  0  0  0  0  0  0
    3.5600    3.4360    4.4750 H   0  0  0  0  0  0  0  0  0  0  0  0
    4.4160    3.0690    2.2020 H   0  0  0  0  0  0  0  0  0  0  0  0
    4.4480    3.5200   -0.1080 H   0  0  0  0  0  0  0  0  0  0  0  0
    2.2790    2.4730   -0.8170 H   0  0  0  0  0  0  0  0  0  0  0  0
    1.7630    4.0230   -1.4780 H   0  0  0  0  0  0  0  0  0  0  0  0
    3.1710    3.1760   -2.1150 H   0  0  0  0  0  0  0  0  0  0  0  0
    4.6090    5.9290   -0.0430 H   0  0  0  0  0  0  0  0  0  0  0  0
    1.4720    5.7940    0.6520 H   0  0  0  0  0  0  0  0  0  0  0  0
    0.5510    6.0660    2.8930 H   0  0  0  0  0  0  0  0  0  0  0  0
    1.6720    7.2390    4.8980 H   0  0  0  0  0  0  0  0  0  0  0  0
    7.7780   13.8510   -4.3100 C   0  0  0  0  0  0  0  0  0  0  0  0
    6.5900   14.4750   -3.8360 O   0  0  0  0  0  0  0  0  0  0  0  0
    5.6410   13.6570   -3.2840 C   0  0  0  0  0  0  0  0  0  0  0  0
    5.7440   12.2710   -3.1440 C   0  0  0  0  0  0  0  0  0  0  0  0
    4.6970   11.5440   -2.5680 C   0  0  0  0  0  0  0  0  0  0  0  0
    4.7250   10.0950   -2.3860 C   0  0  0  0  0  0  0  0  0  0  0  0
    4.9210    9.2250   -3.4660 C   0  0  0  0  0  0  0  0  0  0  0  0
    4.6850    7.8590   -3.3150 C   0  0  0  0  0  0  0  0  0  0  0  0
    4.2650    7.3630   -2.0770 C   0  0  0  0  0  0  0  0  0  0  0  0
    3.8720    5.9450   -1.9610 C   0  0  0  0  0  0  0  0  0  0  0  0
    3.4080    5.3790   -2.9380 O   0  0  0  0  0  0  0  0  0  0  0  0
    4.1140    8.2160   -0.9810 C   0  0  0  0  0  0  0  0  0  0  0  0
    4.3720    9.5690   -1.1310 C   0  0  0  0  0  0  0  0  0  0  0  0
    3.5470   12.2280   -2.1490 C   0  0  0  0  0  0  0  0  0  0  0  0
    3.4310   13.6100   -2.2530 C   0  0  0  0  0  0  0  0  0  0  0  0
    2.2330   14.2540   -1.7210 C   0  0  0  0  0  0  0  0  0  0  0  0
    0.9690   13.9970   -2.2720 C   0  0  0  0  0  0  0  0  0  0  0  0
   -0.1700   14.6300   -1.7710 C   0  0  0  0  0  0  0  0  0  0  0  0
   -0.0680   15.5230   -0.6960 C   0  0  0  0  0  0  0  0  0  0  0  0
   -1.2330   16.4490   -0.3720 C   0  0  1  0  0  0  0  0  0  0  0  0
   -1.5420   16.5830    1.1180 C   0  0  0  0  0  0  0  0  0  0  0  0
   -0.9940   17.7020   -1.0860 N   0  0  0  0  0  0  0  0  0  0  0  0
    1.1840   15.7020   -0.0870 C   0  0  0  0  0  0  0  0  0  0  0  0
    2.3210   15.0860   -0.6020 C   0  0  0  0  0  0  0  0  0  0  0  0
    4.4910   14.3180   -2.8310 C   0  0  0  0  0  0  0  0  0  0  0  0
    7.5580   13.1250   -5.1000 H   0  0  0  0  0  0  0  0  0  0  0  0
    8.4150   14.6280   -4.7420 H   0  0  0  0  0  0  0  0  0  0  0  0
    8.3310   13.3840   -3.4880 H   0  0  0  0  0  0  0  0  0  0  0  0
    6.6310   11.7330   -3.4630 H   0  0  0  0  0  0  0  0  0  0  0  0
    5.1800    9.6120   -4.4490 H   0  0  0  0  0  0  0  0  0  0  0  0
    4.7750    7.1940   -4.1700 H   0  0  0  0  0  0  0  0  0  0  0  0
    3.7270    7.8660   -0.0290 H   0  0  0  0  0  0  0  0  0  0  0  0
    4.2200   10.2270   -0.2790 H   0  0  0  0  0  0  0  0  0  0  0  0
    2.7190   11.6680   -1.7130 H   0  0  0  0  0  0  0  0  0  0  0  0
    0.8700   13.3220   -3.1200 H   0  0  0  0  0  0  0  0  0  0  0  0
   -1.1260   14.4580   -2.2620 H   0  0  0  0  0  0  0  0  0  0  0  0
   -2.1360   16.0320   -0.8370 H   0  0  0  0  0  0  0  0  0  0  0  0
   -1.8090   15.6080    1.5420 H   0  0  0  0  0  0  0  0  0  0  0  0
   -0.6980   16.9620    1.7020 H   0  0  0  0  0  0  0  0  0  0  0  0
   -2.3850   17.2640    1.2760 H   0  0  0  0  0  0  0  0  0  0  0  0
   -0.8250   17.5470   -2.0710 H   0  0  0  0  0  0  0  0  0  0  0  0
    1.2990   16.3860    0.7520 H   0  0  0  0  0  0  0  0  0  0  0  0
    3.2850   15.2740   -0.1320 H   0  0  0  0  0  0  0  0  0  0  0  0
    4.4250   15.3980   -2.9380 H   0  0  0  0  0  0  0  0  0  0  0  0
    7.0830   -4.0870    3.1970 C   0  0  0  0  0  0  0  0  0  0  0  0
    5.9700   -3.2220    2.9550 O   0  0  0  0  0  0  0  0  0  0  0  0
    7.1480   -4.8260    2.3920 H   0  0  0  0  0  0  0  0  0  0  0  0
    6.8980   -4.6160    4.1370 H   0  0  0  0  0  0  0  0  0  0  0  0
    8.0230   -3.5360    3.2930 H   0  0  0  0  0  0  0  0  0  0  0  0
    3.0240   19.0670   -2.4900 C   0  0  0  0  0  0  0  0  0  0  0  0
    2.0770   19.5280   -1.3710 C   0  0  0  0  0  0  0  0  0  0  0  0
    2.7680   19.2320   -0.0310 C   0  0  0  0  0  0  0  0  0  0  0  0
    1.7780   21.0180   -1.5280 C   0  0  0  0  0  0  0  0  0  0  0  0
    0.8490   18.7870   -1.5980 O   0  0  0  0  0  0  0  0  0  0  0  0
   -0.0620   18.5880   -0.6190 C   0  0  0  0  0  0  0  0  0  0  0  0
   -0.0180   19.0420    0.5110 O   0  0  0  0  0  0  0  0  0  0  0  0
    3.9770   19.6050   -2.4640 H   0  0  0  0  0  0  0  0  0  0  0  0
    3.2350   17.9940   -2.3970 H   0  0  0  0  0  0  0  0  0  0  0  0
    2.5700   19.2070   -3.4770 H   0  0  0  0  0  0  0  0  0  0  0  0
    2.8570   18.1550    0.1380 H   0  0  0  0  0  0  0  0  0  0  0  0
    2.2220   19.6500    0.8200 H   0  0  0  0  0  0  0  0  0  0  0  0
    3.7730   19.6660    0.0000 H   0  0  0  0  0  0  0  0  0  0  0  0
    1.2850   21.2140   -2.4870 H   0  0  0  0  0  0  0  0  0  0  0  0
    1.0920   21.3650   -0.7480 H   0  0  0  0  0  0  0  0  0  0  0  0
    2.6910   21.6190   -1.4770 H   0  0  0  0  0  0  0  0  0  0  0  0
  1 28  1  0  0  0  0
  1  2  1  0  0  0  0
  3  2  1  0  0  0  0
  3  4  1  0  0  0  0
  4 29  1  0  0  0  0
  5  4  2  0  0  0  0
  5  6  1  0  0  0  0
  6 13  1  0  0  0  0
  7  8  1  0  0  0  0
  7  6  2  0  0  0  0
  8  9  2  0  0  0  0
  9 10  1  0  0  0  0
  9 12  1  0  0  0  0
 10178  1  0  0  0  0
 11 10  2  0  0  0  0
 12 32  1  0  0  0  0
 13 12  2  0  0  0  0
 13 33  1  0  0  0  0
 14  5  1  0  0  0  0
 15 25  1  0  0  0  0
 15 14  2  0  0  0  0
 16 17  1  0  0  0  0
 16 15  1  0  0  0  0
 17 35  1  0  0  0  0
 18 36  1  0  0  0  0
 18 17  2  0  0  0  0
 19 18  1  0  0  0  0
 20 37  1  6  0  0  0
 20 19  1  0  0  0  0
 20 21  1  0  0  0  0
 21 38  1  0  0  0  0
 21 39  1  0  0  0  0
 22 20  1  0  0  0  0
 22 54  1  0  0  0  0
 23 24  1  0  0  0  0
 23 19  2  0  0  0  0
 24 16  2  0  0  0  0
 25  3  2  0  0  0  0
 26  1  1  0  0  0  0
 27  1  1  0  0  0  0
 30  7  1  0  0  0  0
 31  8  1  0  0  0  0
 34 14  1  0  0  0  0
 40 21  1  0  0  0  0
 41 22  1  0  0  0  0
 42 23  1  0  0  0  0
 43 24  1  0  0  0  0
 44 25  1  0  0  0  0
 45 71  1  0  0  0  0
 45 46  1  0  0  0  0
 47 46  1  0  0  0  0
 47 69  1  0  0  0  0
 48 49  1  0  0  0  0
 48 47  2  0  0  0  0
 49 58  2  0  0  0  0
 50 49  1  0  0  0  0
 51 74  1  0  0  0  0
 51 50  2  0  0  0  0
 52 51  1  0  0  0  0
 53 52  2  0  0  0  0
 53 56  1  0  0  0  0
 54 53  1  0  0  0  0
 55 54  2  0  0  0  0
 56 57  2  0  0  0  0
 57 50  1  0  0  0  0
 57 77  1  0  0  0  0
 58 78  1  0  0  0  0
 58 59  1  0  0  0  0
 59 60  1  0  0  0  0
 60 68  2  0  0  0  0
 60 61  1  0  0  0  0
 61 62  2  0  0  0  0
 62 63  1  0  0  0  0
 62 80  1  0  0  0  0
 63 64  1  0  0  0  0
 64 65  1  0  0  0  0
 64 81  1  1  0  0  0
 64 66  1  0  0  0  0
 65 84  1  0  0  0  0
 66 98  1  0  0  0  0
 67 86  1  0  0  0  0
 67 63  2  0  0  0  0
 68 67  1  0  0  0  0
 69 59  2  0  0  0  0
 69 88  1  0  0  0  0
 70 45  1  0  0  0  0
 72 45  1  0  0  0  0
 73 48  1  0  0  0  0
 75 52  1  0  0  0  0
 76 56  1  0  0  0  0
 79 61  1  0  0  0  0
 82 65  1  0  0  0  0
 83 65  1  0  0  0  0
 85 66  1  0  0  0  0
 87 68  1  0  0  0  0
 89116  1  0  0  0  0
 89114  1  0  0  0  0
 90 89  1  0  0  0  0
 91 90  1  0  0  0  0
 91 92  1  0  0  0  0
 92117  1  0  0  0  0
 93 92  2  0  0  0  0
 93 94  1  0  0  0  0
 94101  2  0  0  0  0
 94 95  1  0  0  0  0
 95118  1  0  0  0  0
 95 96  2  0  0  0  0
 96119  1  0  0  0  0
 97 96  1  0  0  0  0
 97 98  1  0  0  0  0
 98 99  2  0  0  0  0
100 97  2  0  0  0  0
101100  1  0  0  0  0
102 93  1  0  0  0  0
103113  1  0  0  0  0
103102  2  0  0  0  0
104103  1  0  0  0  0
105104  1  0  0  0  0
105123  1  0  0  0  0
106105  2  0  0  0  0
107111  2  0  0  0  0
107106  1  0  0  0  0
108125  1  1  0  0  0
108107  1  0  0  0  0
109126  1  0  0  0  0
109108  1  0  0  0  0
110108  1  0  0  0  0
110129  1  0  0  0  0
111112  1  0  0  0  0
112131  1  0  0  0  0
112104  2  0  0  0  0
113 91  2  0  0  0  0
115 89  1  0  0  0  0
120100  1  0  0  0  0
121101  1  0  0  0  0
122102  1  0  0  0  0
124106  1  0  0  0  0
127109  1  0  0  0  0
128109  1  0  0  0  0
130111  1  0  0  0  0
132113  1  0  0  0  0
133134  1  0  0  0  0
133160  1  0  0  0  0
134135  1  0  0  0  0
135136  2  0  0  0  0
135157  1  0  0  0  0
136137  1  0  0  0  0
137138  1  0  0  0  0
137146  2  0  0  0  0
138145  1  0  0  0  0
139140  1  0  0  0  0
139138  2  0  0  0  0
140141  2  0  0  0  0
141142  1  0  0  0  0
141144  1  0  0  0  0
142110  1  0  0  0  0
143142  2  0  0  0  0
144164  1  0  0  0  0
145144  2  0  0  0  0
145165  1  0  0  0  0
146166  1  0  0  0  0
147146  1  0  0  0  0
147148  1  0  0  0  0
148156  1  0  0  0  0
149150  1  0  0  0  0
149148  2  0  0  0  0
150151  2  0  0  0  0
151152  1  0  0  0  0
151155  1  0  0  0  0
152169  1  6  0  0  0
152153  1  0  0  0  0
153172  1  0  0  0  0
153170  1  0  0  0  0
153171  1  0  0  0  0
154187  1  0  0  0  0
154152  1  0  0  0  0
155174  1  0  0  0  0
156175  1  0  0  0  0
156155  2  0  0  0  0
157147  2  0  0  0  0
158133  1  0  0  0  0
159133  1  0  0  0  0
161136  1  0  0  0  0
162139  1  0  0  0  0
163140  1  0  0  0  0
167149  1  0  0  0  0
168150  1  0  0  0  0
173154  1  0  0  0  0
176157  1  0  0  0  0
177181  1  0  0  0  0
177180  1  0  0  0  0
178177  1  0  0  0  0
179177  1  0  0  0  0
182189  1  0  0  0  0
182190  1  0  0  0  0
182183  1  0  0  0  0
183184  1  0  0  0  0
184194  1  0  0  0  0
184192  1  0  0  0  0
184193  1  0  0  0  0
185197  1  0  0  0  0
185183  1  0  0  0  0
185196  1  0  0  0  0
186183  1  0  0  0  0
186187  1  0  0  0  0
187188  2  0  0  0  0
191182  1  0  0  0  0
195185  1  0  0  0  0
M  END
