mop_tetramer.pdb
 OpenBabel09092515113D

197208  0  0  1  0  0  0  0  0999 V2000
   -3.0260   -6.1300   -1.1150 C   0  0  0  0  0  0  0  0  0  0  0  0
   -3.9380   -6.2780   -1.9110 O   0  0  0  0  0  0  0  0  0  0  0  0
   -2.5790   -4.8160   -0.5940 C   0  0  0  0  0  0  0  0  0  0  0  0
   -1.5740   -4.7220    0.3780 C   0  0  0  0  0  0  0  0  0  0  0  0
   -1.3310   -3.5120    1.0130 C   0  0  0  0  0  0  0  0  0  0  0  0
   -2.0660   -2.3740    0.6660 C   0  0  0  0  0  0  0  0  0  0  0  0
   -1.8340   -1.1050    1.3530 C   0  0  0  0  0  0  0  0  0  0  0  0
   -0.6120   -0.4030    1.2640 C   0  0  0  0  0  0  0  0  0  0  0  0
   -0.5540    0.8700    1.8670 C   0  0  0  0  0  0  0  0  0  0  0  0
   -1.6470    1.4270    2.5340 C   0  0  0  0  0  0  0  0  0  0  0  0
   -1.5270    2.7300    2.9420 O   0  0  0  0  0  0  0  0  0  0  0  0
   -2.7550    3.4500    2.8290 C   0  0  0  0  0  0  0  0  0  0  0  0
   -2.7910    0.6670    2.7290 C   0  0  0  0  0  0  0  0  0  0  0  0
   -2.8890   -0.5800    2.1270 C   0  0  0  0  0  0  0  0  0  0  0  0
    0.5810   -0.9240    0.5450 C   0  0  0  0  0  0  0  0  0  0  0  0
    0.5370   -1.2820   -0.8090 C   0  0  0  0  0  0  0  0  0  0  0  0
    1.6810   -1.6800   -1.4970 C   0  0  0  0  0  0  0  0  0  0  0  0
    2.8960   -1.7780   -0.8260 C   0  0  0  0  0  0  0  0  0  0  0  0
    2.9860   -1.4910    0.5460 C   0  0  0  0  0  0  0  0  0  0  0  0
    1.8090   -1.0850    1.2100 C   0  0  0  0  0  0  0  0  0  0  0  0
    4.2960   -1.7290    1.2880 C   0  0  2  0  0  0  0  0  0  0  0  0
    4.3760   -1.1970    2.6540 N   0  0  0  0  0  0  0  0  0  0  0  0
    5.5890   -1.4660    0.4970 C   0  0  0  0  0  0  0  0  0  0  0  0
   -3.0280   -2.4590   -0.3550 C   0  0  0  0  0  0  0  0  0  0  0  0
   -3.2870   -3.6740   -0.9840 C   0  0  0  0  0  0  0  0  0  0  0  0
   -0.9990   -5.5910    0.6860 H   0  0  0  0  0  0  0  0  0  0  0  0
   -0.5710   -3.4590    1.7910 H   0  0  0  0  0  0  0  0  0  0  0  0
    0.3470    1.4620    1.7620 H   0  0  0  0  0  0  0  0  0  0  0  0
   -2.5390    4.5160    2.8450 H   0  0  0  0  0  0  0  0  0  0  0  0
   -3.4060    3.2170    3.6730 H   0  0  0  0  0  0  0  0  0  0  0  0
   -3.2700    3.2540    1.8870 H   0  0  0  0  0  0  0  0  0  0  0  0
   -3.6270    1.0300    3.3170 H   0  0  0  0  0  0  0  0  0  0  0  0
   -3.8080   -1.1510    2.2530 H   0  0  0  0  0  0  0  0  0  0  0  0
   -0.3970   -1.2310   -1.3610 H   0  0  0  0  0  0  0  0  0  0  0  0
    1.6210   -1.9100   -2.5580 H   0  0  0  0  0  0  0  0  0  0  0  0
    3.7650   -2.1050   -1.3920 H   0  0  0  0  0  0  0  0  0  0  0  0
    1.8320   -0.8960    2.2810 H   0  0  0  0  0  0  0  0  0  0  0  0
    4.2900   -2.8150    1.4640 H   0  0  0  0  0  0  0  0  0  0  0  0
    4.5940   -1.8820    3.3660 H   0  0  0  0  0  0  0  0  0  0  0  0
    6.3830   -1.0600    1.1330 H   0  0  0  0  0  0  0  0  0  0  0  0
    5.4460   -0.7860   -0.3490 H   0  0  0  0  0  0  0  0  0  0  0  0
    5.9700   -2.4030    0.0760 H   0  0  0  0  0  0  0  0  0  0  0  0
   -3.5930   -1.5760   -0.6510 H   0  0  0  0  0  0  0  0  0  0  0  0
   -4.0650   -3.7340   -1.7410 H   0  0  0  0  0  0  0  0  0  0  0  0
    4.2320    0.0470    3.2120 C   0  0  0  0  0  0  0  0  0  0  0  0
    4.3320    0.1610    4.4320 O   0  0  0  0  0  0  0  0  0  0  0  0
    3.8510    1.2270    2.4090 C   0  0  0  0  0  0  0  0  0  0  0  0
    4.4570    1.5290    1.1950 C   0  0  0  0  0  0  0  0  0  0  0  0
    3.9790    2.5710    0.4070 C   0  0  0  0  0  0  0  0  0  0  0  0
    2.9320    3.3790    0.8540 C   0  0  0  0  0  0  0  0  0  0  0  0
    2.5000    4.5170    0.0380 C   0  0  0  0  0  0  0  0  0  0  0  0
    1.9080    4.3920   -1.2370 C   0  0  0  0  0  0  0  0  0  0  0  0
    1.5460    5.5870   -1.8920 C   0  0  0  0  0  0  0  0  0  0  0  0
    1.7450    6.8570   -1.3500 C   0  0  0  0  0  0  0  0  0  0  0  0
    1.2560    7.8910   -2.0950 O   0  0  0  0  0  0  0  0  0  0  0  0
    0.9480    9.0900   -1.3920 C   0  0  0  0  0  0  0  0  0  0  0  0
    2.3820    6.9710   -0.1280 C   0  0  0  0  0  0  0  0  0  0  0  0
    2.7500    5.8110    0.5570 C   0  0  0  0  0  0  0  0  0  0  0  0
    1.4990    3.1320   -1.9140 C   0  0  0  0  0  0  0  0  0  0  0  0
    0.5060    2.3300   -1.3610 C   0  0  0  0  0  0  0  0  0  0  0  0
   -0.2090    1.4260   -2.1430 C   0  0  0  0  0  0  0  0  0  0  0  0
    0.1440    1.1880   -3.4650 C   0  0  0  0  0  0  0  0  0  0  0  0
    1.2150    1.8780   -4.0410 C   0  0  0  0  0  0  0  0  0  0  0  0
    1.8860    2.8360   -3.2370 C   0  0  0  0  0  0  0  0  0  0  0  0
    1.6850    1.5570   -5.4540 C   0  0  2  0  0  0  0  0  0  0  0  0
    2.4460    2.6260   -6.0970 N   0  0  0  0  0  0  0  0  0  0  0  0
    0.7050    0.9410   -6.4740 C   0  0  0  0  0  0  0  0  0  0  0  0
    2.3910    3.1370    2.1290 C   0  0  0  0  0  0  0  0  0  0  0  0
    2.8430    2.0630    2.9010 C   0  0  0  0  0  0  0  0  0  0  0  0
    5.3170    0.9790    0.8480 H   0  0  0  0  0  0  0  0  0  0  0  0
    4.4450    2.7660   -0.5560 H   0  0  0  0  0  0  0  0  0  0  0  0
    1.0210    5.5120   -2.8380 H   0  0  0  0  0  0  0  0  0  0  0  0
    0.2410    9.6590   -2.0040 H   0  0  0  0  0  0  0  0  0  0  0  0
    1.8510    9.6920   -1.2590 H   0  0  0  0  0  0  0  0  0  0  0  0
    0.4660    8.9010   -0.4290 H   0  0  0  0  0  0  0  0  0  0  0  0
    2.5890    7.9360    0.3210 H   0  0  0  0  0  0  0  0  0  0  0  0
    3.2370    5.9170    1.5260 H   0  0  0  0  0  0  0  0  0  0  0  0
    0.2090    2.4770   -0.3300 H   0  0  0  0  0  0  0  0  0  0  0  0
   -1.0620    0.9070   -1.7120 H   0  0  0  0  0  0  0  0  0  0  0  0
   -0.4250    0.4420   -4.0080 H   0  0  0  0  0  0  0  0  0  0  0  0
    2.7020    3.4170   -3.6650 H   0  0  0  0  0  0  0  0  0  0  0  0
    2.4360    0.7710   -5.2820 H   0  0  0  0  0  0  0  0  0  0  0  0
    3.3490    2.3550   -6.4650 H   0  0  0  0  0  0  0  0  0  0  0  0
    0.4830    1.6240   -7.3020 H   0  0  0  0  0  0  0  0  0  0  0  0
   -0.2470    0.6100   -6.0560 H   0  0  0  0  0  0  0  0  0  0  0  0
    1.1680    0.0670   -6.9460 H   0  0  0  0  0  0  0  0  0  0  0  0
    1.5950    3.7670    2.5210 H   0  0  0  0  0  0  0  0  0  0  0  0
    2.3890    1.8630    3.8710 H   0  0  0  0  0  0  0  0  0  0  0  0
    2.1790    3.9410   -6.3800 C   0  0  0  0  0  0  0  0  0  0  0  0
    3.0500    4.5790   -6.9730 O   0  0  0  0  0  0  0  0  0  0  0  0
    0.9590    4.6560   -5.9150 C   0  0  0  0  0  0  0  0  0  0  0  0
   -0.3230    4.1120   -5.8720 C   0  0  0  0  0  0  0  0  0  0  0  0
   -1.4000    4.8400   -5.3450 C   0  0  0  0  0  0  0  0  0  0  0  0
   -1.2360    6.1380   -4.8460 C   0  0  0  0  0  0  0  0  0  0  0  0
   -2.3650    6.8900   -4.2340 C   0  0  0  0  0  0  0  0  0  0  0  0
   -3.3530    6.3040   -3.3950 C   0  0  0  0  0  0  0  0  0  0  0  0
   -4.3840    7.1350   -2.9050 C   0  0  0  0  0  0  0  0  0  0  0  0
   -4.4090    8.5120   -3.1010 C   0  0  0  0  0  0  0  0  0  0  0  0
   -5.4140    9.1820   -2.4630 O   0  0  0  0  0  0  0  0  0  0  0  0
   -5.0780   10.4870   -2.0020 C   0  0  0  0  0  0  0  0  0  0  0  0
   -3.4360    9.0930   -3.8910 C   0  0  0  0  0  0  0  0  0  0  0  0
   -2.4500    8.2860   -4.4700 C   0  0  0  0  0  0  0  0  0  0  0  0
   -3.2440    4.9840   -2.7160 C   0  0  0  0  0  0  0  0  0  0  0  0
   -2.1550    4.8030   -1.8700 C   0  0  0  0  0  0  0  0  0  0  0  0
   -2.1620    3.8330   -0.8830 C   0  0  0  0  0  0  0  0  0  0  0  0
   -3.1760    2.8930   -0.8290 C   0  0  0  0  0  0  0  0  0  0  0  0
   -4.2800    2.9840   -1.6770 C   0  0  0  0  0  0  0  0  0  0  0  0
   -4.2890    4.0370   -2.6330 C   0  0  0  0  0  0  0  0  0  0  0  0
   -5.4050    1.9650   -1.5690 C   0  0  2  0  0  0  0  0  0  0  0  0
   -6.7080    2.4630   -1.9870 N   0  0  0  0  0  0  0  0  0  0  0  0
   -5.6000    1.1800   -0.2520 C   0  0  0  0  0  0  0  0  0  0  0  0
    0.0470    6.7040   -4.9700 C   0  0  0  0  0  0  0  0  0  0  0  0
    1.1260    5.9800   -5.4980 C   0  0  0  0  0  0  0  0  0  0  0  0
   -0.5340    3.1210   -6.2390 H   0  0  0  0  0  0  0  0  0  0  0  0
   -2.3780    4.3640   -5.3230 H   0  0  0  0  0  0  0  0  0  0  0  0
   -5.1200    6.7040   -2.2380 H   0  0  0  0  0  0  0  0  0  0  0  0
   -5.8470   10.7960   -1.2870 H   0  0  0  0  0  0  0  0  0  0  0  0
   -5.0870   11.2010   -2.8310 H   0  0  0  0  0  0  0  0  0  0  0  0
   -4.1140   10.5020   -1.4800 H   0  0  0  0  0  0  0  0  0  0  0  0
   -3.4210   10.1600   -4.0820 H   0  0  0  0  0  0  0  0  0  0  0  0
   -1.7160    8.7780   -5.1060 H   0  0  0  0  0  0  0  0  0  0  0  0
   -1.3180    5.4850   -1.9250 H   0  0  0  0  0  0  0  0  0  0  0  0
   -1.3670    3.8190   -0.1470 H   0  0  0  0  0  0  0  0  0  0  0  0
   -3.0680    2.1000   -0.1000 H   0  0  0  0  0  0  0  0  0  0  0  0
   -5.1540    4.1610   -3.2840 H   0  0  0  0  0  0  0  0  0  0  0  0
   -5.1410    1.2100   -2.3230 H   0  0  0  0  0  0  0  0  0  0  0  0
   -7.2560    1.8190   -2.5450 H   0  0  0  0  0  0  0  0  0  0  0  0
   -6.4600    1.5400    0.3230 H   0  0  0  0  0  0  0  0  0  0  0  0
   -4.7450    1.1780    0.4210 H   0  0  0  0  0  0  0  0  0  0  0  0
   -5.8210    0.1300   -0.4810 H   0  0  0  0  0  0  0  0  0  0  0  0
    0.2520    7.7070   -4.6010 H   0  0  0  0  0  0  0  0  0  0  0  0
    2.1100    6.4450   -5.5320 H   0  0  0  0  0  0  0  0  0  0  0  0
   -7.4960    3.4840   -1.5240 C   0  0  0  0  0  0  0  0  0  0  0  0
   -8.6720    3.5000   -1.8940 O   0  0  0  0  0  0  0  0  0  0  0  0
   -6.9890    4.6290   -0.7170 C   0  0  0  0  0  0  0  0  0  0  0  0
   -6.1450    4.5640    0.3960 C   0  0  0  0  0  0  0  0  0  0  0  0
   -5.7140    5.7380    1.0580 C   0  0  0  0  0  0  0  0  0  0  0  0
   -6.1350    7.0080    0.6460 C   0  0  0  0  0  0  0  0  0  0  0  0
   -5.7960    8.2830    1.3470 C   0  0  0  0  0  0  0  0  0  0  0  0
   -4.5210    8.6980    1.8290 C   0  0  0  0  0  0  0  0  0  0  0  0
   -4.4000    9.9970    2.3830 C   0  0  0  0  0  0  0  0  0  0  0  0
   -5.4700   10.8840    2.4820 C   0  0  0  0  0  0  0  0  0  0  0  0
   -5.1620   12.1120    2.9930 O   0  0  0  0  0  0  0  0  0  0  0  0
   -6.1650   13.1130    2.8760 C   0  0  0  0  0  0  0  0  0  0  0  0
   -6.7210   10.4660    2.0700 C   0  0  0  0  0  0  0  0  0  0  0  0
   -6.8750    9.1900    1.5290 C   0  0  0  0  0  0  0  0  0  0  0  0
   -3.2610    7.9280    1.7560 C   0  0  0  0  0  0  0  0  0  0  0  0
   -2.6830    7.6120    0.5340 C   0  0  0  0  0  0  0  0  0  0  0  0
   -1.4340    7.0040    0.4830 C   0  0  0  0  0  0  0  0  0  0  0  0
   -0.7600    6.6290    1.6390 C   0  0  0  0  0  0  0  0  0  0  0  0
   -1.2810    6.9470    2.8930 C   0  0  0  0  0  0  0  0  0  0  0  0
   -2.5110    7.6340    2.9230 C   0  0  0  0  0  0  0  0  0  0  0  0
   -0.5120    6.5390    4.1430 C   0  0  2  0  0  0  0  0  0  0  0  0
   -1.3030    5.6490    4.9920 N   0  0  0  0  0  0  0  0  0  0  0  0
    0.1390    7.7130    4.8570 C   0  0  0  0  0  0  0  0  0  0  0  0
   -7.0110    7.0410   -0.4630 C   0  0  0  0  0  0  0  0  0  0  0  0
   -7.4380    5.8870   -1.1220 C   0  0  0  0  0  0  0  0  0  0  0  0
   -5.8050    3.6130    0.7840 H   0  0  0  0  0  0  0  0  0  0  0  0
   -5.0560    5.6360    1.9170 H   0  0  0  0  0  0  0  0  0  0  0  0
   -3.4230   10.3440    2.7220 H   0  0  0  0  0  0  0  0  0  0  0  0
   -5.7410   14.0550    3.2360 H   0  0  0  0  0  0  0  0  0  0  0  0
   -7.0310   12.8750    3.5030 H   0  0  0  0  0  0  0  0  0  0  0  0
   -6.4610   13.2590    1.8320 H   0  0  0  0  0  0  0  0  0  0  0  0
   -7.5980   11.0980    2.1430 H   0  0  0  0  0  0  0  0  0  0  0  0
   -7.8820    8.9010    1.2260 H   0  0  0  0  0  0  0  0  0  0  0  0
   -3.1850    7.8760   -0.3960 H   0  0  0  0  0  0  0  0  0  0  0  0
   -0.9690    6.8280   -0.4760 H   0  0  0  0  0  0  0  0  0  0  0  0
    0.1820    6.0960    1.5530 H   0  0  0  0  0  0  0  0  0  0  0  0
   -2.9030    7.9690    3.8810 H   0  0  0  0  0  0  0  0  0  0  0  0
    0.3140    5.8880    3.8220 H   0  0  0  0  0  0  0  0  0  0  0  0
   -1.4160    4.7160    4.6320 H   0  0  0  0  0  0  0  0  0  0  0  0
   -0.5890    8.4500    5.2100 H   0  0  0  0  0  0  0  0  0  0  0  0
    0.8270    8.2340    4.1800 H   0  0  0  0  0  0  0  0  0  0  0  0
    0.7190    7.3680    5.7200 H   0  0  0  0  0  0  0  0  0  0  0  0
   -7.3590    7.9950   -0.8590 H   0  0  0  0  0  0  0  0  0  0  0  0
   -8.1010    5.9790   -1.9830 H   0  0  0  0  0  0  0  0  0  0  0  0
   -3.1510   -8.3030   -0.2830 C   0  0  0  0  0  0  0  0  0  0  0  0
   -2.3970   -7.1050   -0.4160 O   0  0  0  0  0  0  0  0  0  0  0  0
   -4.0400   -8.0960    0.3220 H   0  0  0  0  0  0  0  0  0  0  0  0
   -2.5330   -9.0250    0.2570 H   0  0  0  0  0  0  0  0  0  0  0  0
   -3.4260   -8.7180   -1.2550 H   0  0  0  0  0  0  0  0  0  0  0  0
   -5.5910    4.3780    5.1400 C   0  0  0  0  0  0  0  0  0  0  0  0
   -4.7690    5.5080    5.7810 C   0  0  0  0  0  0  0  0  0  0  0  0
   -5.2230    6.8220    5.1310 C   0  0  0  0  0  0  0  0  0  0  0  0
   -5.0010    5.5170    7.2890 C   0  0  0  0  0  0  0  0  0  0  0  0
   -3.3880    5.1710    5.4860 O   0  0  0  0  0  0  0  0  0  0  0  0
   -2.3980    6.0770    5.6710 C   0  0  0  0  0  0  0  0  0  0  0  0
   -2.5110    7.1560    6.2340 O   0  0  0  0  0  0  0  0  0  0  0  0
   -6.6640    4.5030    5.3170 H   0  0  0  0  0  0  0  0  0  0  0  0
   -5.4300    4.3510    4.0560 H   0  0  0  0  0  0  0  0  0  0  0  0
   -5.2810    3.3990    5.5220 H   0  0  0  0  0  0  0  0  0  0  0  0
   -5.0070    6.8080    4.0610 H   0  0  0  0  0  0  0  0  0  0  0  0
   -4.7190    7.6970    5.5500 H   0  0  0  0  0  0  0  0  0  0  0  0
   -6.2990    6.9810    5.2540 H   0  0  0  0  0  0  0  0  0  0  0  0
   -4.7020    4.5610    7.7320 H   0  0  0  0  0  0  0  0  0  0  0  0
   -4.4050    6.2910    7.7820 H   0  0  0  0  0  0  0  0  0  0  0  0
   -6.0540    5.6970    7.5270 H   0  0  0  0  0  0  0  0  0  0  0  0
  1  3  1  0  0  0  0
  1178  1  0  0  0  0
  2  1  2  0  0  0  0
  3  4  1  0  0  0  0
  4 26  1  0  0  0  0
  4  5  2  0  0  0  0
  5 27  1  0  0  0  0
  6  5  1  0  0  0  0
  6  7  1  0  0  0  0
  7 14  1  0  0  0  0
  8  7  2  0  0  0  0
  8  9  1  0  0  0  0
  9 10  2  0  0  0  0
 10 13  1  0  0  0  0
 10 11  1  0  0  0  0
 12 29  1  0  0  0  0
 12 11  1  0  0  0  0
 12 30  1  0  0  0  0
 13 32  1  0  0  0  0
 14 33  1  0  0  0  0
 14 13  2  0  0  0  0
 15 20  1  0  0  0  0
 15  8  1  0  0  0  0
 16 15  2  0  0  0  0
 17 18  2  0  0  0  0
 17 16  1  0  0  0  0
 18 19  1  0  0  0  0
 19 20  2  0  0  0  0
 19 21  1  0  0  0  0
 20 37  1  0  0  0  0
 21 38  1  1  0  0  0
 21 22  1  0  0  0  0
 22 45  1  0  0  0  0
 22 39  1  0  0  0  0
 23 40  1  0  0  0  0
 23 21  1  0  0  0  0
 24  6  2  0  0  0  0
 25  3  2  0  0  0  0
 25 24  1  0  0  0  0
 28  9  1  0  0  0  0
 31 12  1  0  0  0  0
 34 16  1  0  0  0  0
 35 17  1  0  0  0  0
 36 18  1  0  0  0  0
 41 23  1  0  0  0  0
 42 23  1  0  0  0  0
 43 24  1  0  0  0  0
 44 25  1  0  0  0  0
 45 46  2  0  0  0  0
 47 69  1  0  0  0  0
 47 45  1  0  0  0  0
 48 47  2  0  0  0  0
 49 50  2  0  0  0  0
 49 48  1  0  0  0  0
 50 68  1  0  0  0  0
 51 58  1  0  0  0  0
 51 50  1  0  0  0  0
 52 51  2  0  0  0  0
 53 54  2  0  0  0  0
 53 52  1  0  0  0  0
 54 57  1  0  0  0  0
 55 56  1  0  0  0  0
 55 54  1  0  0  0  0
 56 74  1  0  0  0  0
 56 75  1  0  0  0  0
 57 76  1  0  0  0  0
 57 58  2  0  0  0  0
 58 77  1  0  0  0  0
 59 60  1  0  0  0  0
 59 52  1  0  0  0  0
 60 78  1  0  0  0  0
 61 79  1  0  0  0  0
 61 60  2  0  0  0  0
 62 61  1  0  0  0  0
 63 62  2  0  0  0  0
 63 64  1  0  0  0  0
 64 59  2  0  0  0  0
 65 82  1  1  0  0  0
 65 63  1  0  0  0  0
 66 65  1  0  0  0  0
 67 85  1  0  0  0  0
 67 65  1  0  0  0  0
 68 87  1  0  0  0  0
 68 69  2  0  0  0  0
 69 88  1  0  0  0  0
 70 48  1  0  0  0  0
 71 49  1  0  0  0  0
 72 53  1  0  0  0  0
 73 56  1  0  0  0  0
 80 62  1  0  0  0  0
 81 64  1  0  0  0  0
 83 66  1  0  0  0  0
 84 67  1  0  0  0  0
 86 67  1  0  0  0  0
 89 66  1  0  0  0  0
 89 91  1  0  0  0  0
 90 89  2  0  0  0  0
 91 92  2  0  0  0  0
 91113  1  0  0  0  0
 92 93  1  0  0  0  0
 93115  1  0  0  0  0
 93 94  2  0  0  0  0
 94 95  1  0  0  0  0
 95 96  1  0  0  0  0
 96 97  2  0  0  0  0
 96103  1  0  0  0  0
 97116  1  0  0  0  0
 98 97  1  0  0  0  0
 98 99  1  0  0  0  0
 99100  1  0  0  0  0
100119  1  0  0  0  0
100117  1  0  0  0  0
101 98  2  0  0  0  0
102 95  2  0  0  0  0
102101  1  0  0  0  0
103108  2  0  0  0  0
103104  1  0  0  0  0
104105  2  0  0  0  0
105106  1  0  0  0  0
105123  1  0  0  0  0
106124  1  0  0  0  0
107109  1  0  0  0  0
107106  2  0  0  0  0
108107  1  0  0  0  0
109126  1  6  0  0  0
109111  1  0  0  0  0
110109  1  0  0  0  0
110133  1  0  0  0  0
111128  1  0  0  0  0
111129  1  0  0  0  0
112 94  1  0  0  0  0
112131  1  0  0  0  0
113112  2  0  0  0  0
114 92  1  0  0  0  0
118100  1  0  0  0  0
120101  1  0  0  0  0
121102  1  0  0  0  0
122104  1  0  0  0  0
125108  1  0  0  0  0
127110  1  0  0  0  0
130111  1  0  0  0  0
132113  1  0  0  0  0
133135  1  0  0  0  0
134133  2  0  0  0  0
135136  1  0  0  0  0
136158  1  0  0  0  0
136137  2  0  0  0  0
137159  1  0  0  0  0
138137  1  0  0  0  0
138139  1  0  0  0  0
139146  2  0  0  0  0
139140  1  0  0  0  0
140141  2  0  0  0  0
141142  1  0  0  0  0
141160  1  0  0  0  0
142143  1  0  0  0  0
144143  1  0  0  0  0
144161  1  0  0  0  0
144162  1  0  0  0  0
145164  1  0  0  0  0
145142  2  0  0  0  0
146145  1  0  0  0  0
147140  1  0  0  0  0
147152  1  0  0  0  0
148147  2  0  0  0  0
149148  1  0  0  0  0
149150  2  0  0  0  0
150151  1  0  0  0  0
151152  2  0  0  0  0
151153  1  0  0  0  0
152169  1  0  0  0  0
153170  1  6  0  0  0
153155  1  0  0  0  0
153154  1  0  0  0  0
154187  1  0  0  0  0
155172  1  0  0  0  0
155174  1  0  0  0  0
156138  2  0  0  0  0
157135  2  0  0  0  0
157156  1  0  0  0  0
163144  1  0  0  0  0
165146  1  0  0  0  0
166148  1  0  0  0  0
167149  1  0  0  0  0
168150  1  0  0  0  0
171154  1  0  0  0  0
173155  1  0  0  0  0
175156  1  0  0  0  0
176157  1  0  0  0  0
177180  1  0  0  0  0
177179  1  0  0  0  0
178177  1  0  0  0  0
181177  1  0  0  0  0
182189  1  0  0  0  0
182191  1  0  0  0  0
182183  1  0  0  0  0
183185  1  0  0  0  0
184194  1  0  0  0  0
184193  1  0  0  0  0
184183  1  0  0  0  0
185197  1  0  0  0  0
185195  1  0  0  0  0
185196  1  0  0  0  0
186187  1  0  0  0  0
186183  1  0  0  0  0
187188  2  0  0  0  0
190182  1  0  0  0  0
192184  1  0  0  0  0
M  END
