mop_tetramer.pdb
 OpenBabel06202514163D

197208  0  0  1  0  0  0  0  0999 V2000
   -4.9940   -3.9230   -0.5810 C   0  0  0  0  0  0  0  0  0  0  0  0
   -6.1690   -3.8650   -0.9410 O   0  0  0  0  0  0  0  0  0  0  0  0
   -4.1670   -2.6850   -0.4480 C   0  0  0  0  0  0  0  0  0  0  0  0
   -2.9380   -2.6310    0.2210 C   0  0  0  0  0  0  0  0  0  0  0  0
   -2.1900   -1.4160    0.2700 C   0  0  0  0  0  0  0  0  0  0  0  0
   -2.6590   -0.2310   -0.2970 C   0  0  0  0  0  0  0  0  0  0  0  0
   -2.1250    1.1170    0.0340 C   0  0  0  0  0  0  0  0  0  0  0  0
   -0.8320    1.6850   -0.1370 C   0  0  0  0  0  0  0  0  0  0  0  0
   -0.6590    3.0530    0.2270 C   0  0  0  0  0  0  0  0  0  0  0  0
   -1.6410    3.8270    0.8330 C   0  0  0  0  0  0  0  0  0  0  0  0
   -1.2430    5.0850    1.1730 O   0  0  0  0  0  0  0  0  0  0  0  0
   -2.2180    5.9140    1.7860 C   0  0  0  0  0  0  0  0  0  0  0  0
   -2.8740    3.2600    1.0660 C   0  0  0  0  0  0  0  0  0  0  0  0
   -3.1030    1.9440    0.6660 C   0  0  0  0  0  0  0  0  0  0  0  0
    0.4600    1.0510   -0.5040 C   0  0  0  0  0  0  0  0  0  0  0  0
    0.9140    0.8310   -1.7930 C   0  0  0  0  0  0  0  0  0  0  0  0
    2.2370    0.4490   -2.0800 C   0  0  0  0  0  0  0  0  0  0  0  0
    3.1630    0.2930   -1.0590 C   0  0  0  0  0  0  0  0  0  0  0  0
    2.7870    0.6030    0.2450 C   0  0  0  0  0  0  0  0  0  0  0  0
    1.4640    1.0190    0.4710 C   0  0  0  0  0  0  0  0  0  0  0  0
    3.8220    0.6260    1.3390 C   0  0  2  0  0  0  0  0  0  0  0  0
    3.3750    0.0800    2.6330 N   0  0  0  0  0  0  0  0  0  0  0  0
    4.4950    2.0000    1.4620 C   0  0  0  0  0  0  0  0  0  0  0  0
   -3.8780   -0.3390   -1.0130 C   0  0  0  0  0  0  0  0  0  0  0  0
   -4.6210   -1.5310   -1.0790 C   0  0  0  0  0  0  0  0  0  0  0  0
   -2.5280   -3.5200    0.7040 H   0  0  0  0  0  0  0  0  0  0  0  0
   -1.2440   -1.4030    0.7940 H   0  0  0  0  0  0  0  0  0  0  0  0
    0.3200    3.5170    0.0880 H   0  0  0  0  0  0  0  0  0  0  0  0
   -1.7450    6.8760    2.0040 H   0  0  0  0  0  0  0  0  0  0  0  0
   -2.5630    5.4880    2.7330 H   0  0  0  0  0  0  0  0  0  0  0  0
   -3.0540    6.0950    1.1030 H   0  0  0  0  0  0  0  0  0  0  0  0
   -3.6780    3.7940    1.5570 H   0  0  0  0  0  0  0  0  0  0  0  0
   -4.0910    1.5330    0.8810 H   0  0  0  0  0  0  0  0  0  0  0  0
    0.2700    1.0540   -2.6210 H   0  0  0  0  0  0  0  0  0  0  0  0
    2.5520    0.3160   -3.1110 H   0  0  0  0  0  0  0  0  0  0  0  0
    4.1880    0.0080   -1.2950 H   0  0  0  0  0  0  0  0  0  0  0  0
    1.2050    1.4520    1.4310 H   0  0  0  0  0  0  0  0  0  0  0  0
    4.6200   -0.0630    1.0390 H   0  0  0  0  0  0  0  0  0  0  0  0
    4.1230    0.3160    3.2740 H   0  0  0  0  0  0  0  0  0  0  0  0
    3.8030    2.7730    1.8100 H   0  0  0  0  0  0  0  0  0  0  0  0
    4.9050    2.3230    0.4970 H   0  0  0  0  0  0  0  0  0  0  0  0
    5.3330    1.9580    2.1680 H   0  0  0  0  0  0  0  0  0  0  0  0
   -4.2960    0.5490   -1.4900 H   0  0  0  0  0  0  0  0  0  0  0  0
   -5.5610   -1.5390   -1.6260 H   0  0  0  0  0  0  0  0  0  0  0  0
    2.2310    0.4790    3.2830 C   0  0  0  0  0  0  0  0  0  0  0  0
    2.2750    1.4520    4.0300 O   0  0  0  0  0  0  0  0  0  0  0  0
    0.9910   -0.3910    3.2090 C   0  0  0  0  0  0  0  0  0  0  0  0
    0.9170   -1.6530    2.5920 C   0  0  0  0  0  0  0  0  0  0  0  0
   -0.2110   -2.5010    2.7970 C   0  0  0  0  0  0  0  0  0  0  0  0
   -1.3180   -2.0880    3.5620 C   0  0  0  0  0  0  0  0  0  0  0  0
   -2.6380   -2.8100    3.6280 C   0  0  0  0  0  0  0  0  0  0  0  0
   -2.9100   -4.1690    3.9350 C   0  0  0  0  0  0  0  0  0  0  0  0
   -4.2790   -4.5800    3.9530 C   0  0  0  0  0  0  0  0  0  0  0  0
   -5.3540   -3.7600    3.6430 C   0  0  0  0  0  0  0  0  0  0  0  0
   -6.5680   -4.3690    3.7150 O   0  0  0  0  0  0  0  0  0  0  0  0
   -7.7050   -3.5890    3.3830 C   0  0  0  0  0  0  0  0  0  0  0  0
   -5.0970   -2.4490    3.3180 C   0  0  0  0  0  0  0  0  0  0  0  0
   -3.7720   -1.9910    3.3190 C   0  0  0  0  0  0  0  0  0  0  0  0
   -1.9690   -5.2430    4.3370 C   0  0  0  0  0  0  0  0  0  0  0  0
   -0.8990   -5.0360    5.1930 C   0  0  0  0  0  0  0  0  0  0  0  0
   -0.2250   -6.1050    5.8000 C   0  0  0  0  0  0  0  0  0  0  0  0
   -0.4850   -7.4100    5.4540 C   0  0  0  0  0  0  0  0  0  0  0  0
   -1.3800   -7.6290    4.4190 C   0  0  0  0  0  0  0  0  0  0  0  0
   -2.1900   -6.5760    3.9530 C   0  0  0  0  0  0  0  0  0  0  0  0
   -1.0740   -8.7700    3.4790 C   0  0  2  0  0  0  0  0  0  0  0  0
   -0.4680   -8.0840    2.3280 N   0  0  0  0  0  0  0  0  0  0  0  0
   -2.2220   -9.7410    3.2490 C   0  0  0  0  0  0  0  0  0  0  0  0
   -1.2180   -0.8050    4.1430 C   0  0  0  0  0  0  0  0  0  0  0  0
   -0.1050    0.0290    3.9640 C   0  0  0  0  0  0  0  0  0  0  0  0
    1.7480   -2.0110    1.9870 H   0  0  0  0  0  0  0  0  0  0  0  0
   -0.2300   -3.4670    2.2970 H   0  0  0  0  0  0  0  0  0  0  0  0
   -4.5340   -5.5990    4.2500 H   0  0  0  0  0  0  0  0  0  0  0  0
   -8.5850   -4.2340    3.4730 H   0  0  0  0  0  0  0  0  0  0  0  0
   -7.6520   -3.2340    2.3490 H   0  0  0  0  0  0  0  0  0  0  0  0
   -7.8270   -2.7580    4.0850 H   0  0  0  0  0  0  0  0  0  0  0  0
   -5.8850   -1.7520    3.0610 H   0  0  0  0  0  0  0  0  0  0  0  0
   -3.6210   -0.9500    3.0380 H   0  0  0  0  0  0  0  0  0  0  0  0
   -0.6210   -4.0260    5.4490 H   0  0  0  0  0  0  0  0  0  0  0  0
    0.5480   -5.9360    6.5290 H   0  0  0  0  0  0  0  0  0  0  0  0
    0.1300   -8.2100    5.8620 H   0  0  0  0  0  0  0  0  0  0  0  0
   -2.9210   -6.8010    3.1760 H   0  0  0  0  0  0  0  0  0  0  0  0
   -0.2680   -9.3540    3.9320 H   0  0  0  0  0  0  0  0  0  0  0  0
    0.1790   -7.3570    2.6390 H   0  0  0  0  0  0  0  0  0  0  0  0
   -3.1150   -9.2590    2.8430 H   0  0  0  0  0  0  0  0  0  0  0  0
   -2.5160  -10.2110    4.1960 H   0  0  0  0  0  0  0  0  0  0  0  0
   -1.9180  -10.5430    2.5680 H   0  0  0  0  0  0  0  0  0  0  0  0
   -2.0370   -0.4180    4.7490 H   0  0  0  0  0  0  0  0  0  0  0  0
   -0.0910    1.0030    4.4510 H   0  0  0  0  0  0  0  0  0  0  0  0
   -1.0540   -7.8460    1.1260 C   0  0  0  0  0  0  0  0  0  0  0  0
   -1.9750   -8.5800    0.7170 O   0  0  0  0  0  0  0  0  0  0  0  0
   -0.6390   -6.6660    0.2920 C   0  0  0  0  0  0  0  0  0  0  0  0
    0.4000   -5.7470    0.5120 C   0  0  0  0  0  0  0  0  0  0  0  0
    0.6090   -4.6550   -0.3870 C   0  0  0  0  0  0  0  0  0  0  0  0
   -0.2320   -4.4440   -1.4990 C   0  0  0  0  0  0  0  0  0  0  0  0
   -0.1880   -3.2720   -2.4260 C   0  0  0  0  0  0  0  0  0  0  0  0
    0.8990   -2.9010   -3.2400 C   0  0  0  0  0  0  0  0  0  0  0  0
    0.7850   -1.7570   -4.0820 C   0  0  0  0  0  0  0  0  0  0  0  0
   -0.3880   -0.9880   -4.1390 C   0  0  0  0  0  0  0  0  0  0  0  0
   -0.3720    0.1640   -4.8810 O   0  0  0  0  0  0  0  0  0  0  0  0
   -1.3530    1.1560   -4.5380 C   0  0  0  0  0  0  0  0  0  0  0  0
   -1.4910   -1.4330   -3.4480 C   0  0  0  0  0  0  0  0  0  0  0  0
   -1.3790   -2.5580   -2.6360 C   0  0  0  0  0  0  0  0  0  0  0  0
    2.0410   -3.8070   -3.3900 C   0  0  0  0  0  0  0  0  0  0  0  0
    1.8360   -5.0190   -4.0730 C   0  0  0  0  0  0  0  0  0  0  0  0
    2.8350   -5.9750   -4.1600 C   0  0  0  0  0  0  0  0  0  0  0  0
    4.0710   -5.7320   -3.5690 C   0  0  0  0  0  0  0  0  0  0  0  0
    4.3150   -4.5250   -2.8920 C   0  0  0  0  0  0  0  0  0  0  0  0
    3.2940   -3.5590   -2.8180 C   0  0  0  0  0  0  0  0  0  0  0  0
    5.6380   -4.3290   -2.1710 C   0  0  2  0  0  0  0  0  0  0  0  0
    5.4010   -4.4920   -0.7290 N   0  0  0  0  0  0  0  0  0  0  0  0
    6.3630   -3.0700   -2.6620 C   0  0  0  0  0  0  0  0  0  0  0  0
   -1.2450   -5.3860   -1.6970 C   0  0  0  0  0  0  0  0  0  0  0  0
   -1.4290   -6.4640   -0.8380 C   0  0  0  0  0  0  0  0  0  0  0  0
    1.0600   -5.8350    1.3720 H   0  0  0  0  0  0  0  0  0  0  0  0
    1.4200   -3.9540   -0.1820 H   0  0  0  0  0  0  0  0  0  0  0  0
    1.6270   -1.4640   -4.7060 H   0  0  0  0  0  0  0  0  0  0  0  0
   -0.9540    2.1360   -4.8200 H   0  0  0  0  0  0  0  0  0  0  0  0
   -1.5750    1.2080   -3.4640 H   0  0  0  0  0  0  0  0  0  0  0  0
   -2.2830    0.9840   -5.0860 H   0  0  0  0  0  0  0  0  0  0  0  0
   -2.4510   -0.9340   -3.5090 H   0  0  0  0  0  0  0  0  0  0  0  0
   -2.2840   -2.9030   -2.1620 H   0  0  0  0  0  0  0  0  0  0  0  0
    0.8580   -5.2310   -4.5080 H   0  0  0  0  0  0  0  0  0  0  0  0
    2.6400   -6.9180   -4.6670 H   0  0  0  0  0  0  0  0  0  0  0  0
    4.8380   -6.5010   -3.6260 H   0  0  0  0  0  0  0  0  0  0  0  0
    3.4590   -2.6330   -2.2720 H   0  0  0  0  0  0  0  0  0  0  0  0
    6.2920   -5.1710   -2.4340 H   0  0  0  0  0  0  0  0  0  0  0  0
    4.9280   -5.3480   -0.4880 H   0  0  0  0  0  0  0  0  0  0  0  0
    5.8100   -2.1500   -2.4450 H   0  0  0  0  0  0  0  0  0  0  0  0
    6.5000   -3.1020   -3.7500 H   0  0  0  0  0  0  0  0  0  0  0  0
    7.3570   -2.9870   -2.2080 H   0  0  0  0  0  0  0  0  0  0  0  0
   -1.9430   -5.2750   -2.5230 H   0  0  0  0  0  0  0  0  0  0  0  0
   -2.2430   -7.1490   -1.0480 H   0  0  0  0  0  0  0  0  0  0  0  0
    5.4730   -3.4880    0.2090 C   0  0  0  0  0  0  0  0  0  0  0  0
    5.9880   -2.3980   -0.0260 O   0  0  0  0  0  0  0  0  0  0  0  0
    4.8550   -3.7060    1.5670 C   0  0  0  0  0  0  0  0  0  0  0  0
    4.1520   -4.8340    1.9990 C   0  0  0  0  0  0  0  0  0  0  0  0
    3.4800   -4.8250    3.2520 C   0  0  0  0  0  0  0  0  0  0  0  0
    3.4990   -3.7000    4.1060 C   0  0  0  0  0  0  0  0  0  0  0  0
    2.7340   -3.5990    5.3890 C   0  0  0  0  0  0  0  0  0  0  0  0
    2.8940   -4.4740    6.4800 C   0  0  0  0  0  0  0  0  0  0  0  0
    2.0220   -4.3690    7.5990 C   0  0  0  0  0  0  0  0  0  0  0  0
    0.9900   -3.4180    7.6320 C   0  0  0  0  0  0  0  0  0  0  0  0
    0.0440   -3.4960    8.6210 O   0  0  0  0  0  0  0  0  0  0  0  0
   -1.3070   -3.2960    8.1710 C   0  0  0  0  0  0  0  0  0  0  0  0
    0.9890   -2.4240    6.6780 C   0  0  0  0  0  0  0  0  0  0  0  0
    1.8720   -2.5200    5.6030 C   0  0  0  0  0  0  0  0  0  0  0  0
    4.0650   -5.3570    6.4690 C   0  0  0  0  0  0  0  0  0  0  0  0
    5.3290   -4.7370    6.4800 C   0  0  0  0  0  0  0  0  0  0  0  0
    6.4770   -5.4490    6.1760 C   0  0  0  0  0  0  0  0  0  0  0  0
    6.3860   -6.8150    5.9350 C   0  0  0  0  0  0  0  0  0  0  0  0
    5.1540   -7.4920    6.0220 C   0  0  0  0  0  0  0  0  0  0  0  0
    3.9860   -6.7400    6.2540 C   0  0  0  0  0  0  0  0  0  0  0  0
    5.1500   -9.0080    5.9260 C   0  0  2  0  0  0  0  0  0  0  0  0
    4.8870   -9.5170    4.5930 N   0  0  0  0  0  0  0  0  0  0  0  0
    4.3220   -9.6640    7.0350 C   0  0  0  0  0  0  0  0  0  0  0  0
    4.2850   -2.6280    3.6890 C   0  0  0  0  0  0  0  0  0  0  0  0
    4.9460   -2.6320    2.4550 C   0  0  0  0  0  0  0  0  0  0  0  0
    4.0960   -5.7280    1.3890 H   0  0  0  0  0  0  0  0  0  0  0  0
    2.9300   -5.7160    3.5540 H   0  0  0  0  0  0  0  0  0  0  0  0
    2.1090   -5.0730    8.4230 H   0  0  0  0  0  0  0  0  0  0  0  0
   -1.9800   -3.4340    9.0220 H   0  0  0  0  0  0  0  0  0  0  0  0
   -1.6000   -4.0450    7.4340 H   0  0  0  0  0  0  0  0  0  0  0  0
   -1.4820   -2.2910    7.7730 H   0  0  0  0  0  0  0  0  0  0  0  0
    0.2990   -1.5870    6.7160 H   0  0  0  0  0  0  0  0  0  0  0  0
    1.8840   -1.7090    4.9050 H   0  0  0  0  0  0  0  0  0  0  0  0
    5.4000   -3.6610    6.6390 H   0  0  0  0  0  0  0  0  0  0  0  0
    7.4290   -4.9320    6.1140 H   0  0  0  0  0  0  0  0  0  0  0  0
    7.2990   -7.3580    5.7030 H   0  0  0  0  0  0  0  0  0  0  0  0
    3.0110   -7.2220    6.2340 H   0  0  0  0  0  0  0  0  0  0  0  0
    6.1820   -9.3330    6.1160 H   0  0  0  0  0  0  0  0  0  0  0  0
    5.6400   -9.5320    3.9200 H   0  0  0  0  0  0  0  0  0  0  0  0
    3.2610   -9.4000    6.9910 H   0  0  0  0  0  0  0  0  0  0  0  0
    4.6870   -9.3470    8.0190 H   0  0  0  0  0  0  0  0  0  0  0  0
    4.3960  -10.7540    6.9770 H   0  0  0  0  0  0  0  0  0  0  0  0
    4.3620   -1.7460    4.3190 H   0  0  0  0  0  0  0  0  0  0  0  0
    5.5120   -1.7480    2.1750 H   0  0  0  0  0  0  0  0  0  0  0  0
   -4.9650   -6.2900   -0.6150 C   0  0  0  0  0  0  0  0  0  0  0  0
   -4.2840   -5.0470   -0.3550 O   0  0  0  0  0  0  0  0  0  0  0  0
   -5.1140   -6.8190    0.3290 H   0  0  0  0  0  0  0  0  0  0  0  0
   -4.3350   -6.9040   -1.2620 H   0  0  0  0  0  0  0  0  0  0  0  0
   -5.9250   -6.1720   -1.1300 H   0  0  0  0  0  0  0  0  0  0  0  0
    3.0520  -10.3710    0.4620 C   0  0  0  0  0  0  0  0  0  0  0  0
    2.6620   -9.9640    1.8930 C   0  0  0  0  0  0  0  0  0  0  0  0
    2.4290   -8.4550    1.8490 C   0  0  0  0  0  0  0  0  0  0  0  0
    1.4530  -10.8300    2.2740 C   0  0  0  0  0  0  0  0  0  0  0  0
    3.7940  -10.1690    2.7740 O   0  0  0  0  0  0  0  0  0  0  0  0
    3.6590   -9.7570    4.0690 C   0  0  0  0  0  0  0  0  0  0  0  0
    2.6030   -9.5530    4.6480 O   0  0  0  0  0  0  0  0  0  0  0  0
    2.2210  -10.1810   -0.2310 H   0  0  0  0  0  0  0  0  0  0  0  0
    3.9210   -9.8070    0.1100 H   0  0  0  0  0  0  0  0  0  0  0  0
    3.3070  -11.4330    0.4030 H   0  0  0  0  0  0  0  0  0  0  0  0
    3.3710   -7.9330    1.6480 H   0  0  0  0  0  0  0  0  0  0  0  0
    2.0810   -8.0590    2.8060 H   0  0  0  0  0  0  0  0  0  0  0  0
    1.7330   -8.1850    1.0560 H   0  0  0  0  0  0  0  0  0  0  0  0
    1.6830  -11.8930    2.1320 H   0  0  0  0  0  0  0  0  0  0  0  0
    1.1640  -10.7480    3.3210 H   0  0  0  0  0  0  0  0  0  0  0  0
    0.5800  -10.5970    1.6560 H   0  0  0  0  0  0  0  0  0  0  0  0
  1  3  1  0  0  0  0
  1178  1  0  0  0  0
  2  1  2  0  0  0  0
  3  4  1  0  0  0  0
  4  5  2  0  0  0  0
  4 26  1  0  0  0  0
  5 27  1  0  0  0  0
  6  7  1  0  0  0  0
  6  5  1  0  0  0  0
  7 14  1  0  0  0  0
  8  7  2  0  0  0  0
  8  9  1  0  0  0  0
  9 10  2  0  0  0  0
 10 13  1  0  0  0  0
 10 11  1  0  0  0  0
 11 12  1  0  0  0  0
 12 29  1  0  0  0  0
 12 30  1  0  0  0  0
 13 32  1  0  0  0  0
 14 33  1  0  0  0  0
 14 13  2  0  0  0  0
 15  8  1  0  0  0  0
 15 20  1  0  0  0  0
 16 15  2  0  0  0  0
 17 16  1  0  0  0  0
 17 18  2  0  0  0  0
 18 19  1  0  0  0  0
 19 20  2  0  0  0  0
 19 21  1  0  0  0  0
 20 37  1  0  0  0  0
 21 38  1  6  0  0  0
 21 23  1  0  0  0  0
 21 22  1  0  0  0  0
 22 39  1  0  0  0  0
 22 45  1  0  0  0  0
 23 40  1  0  0  0  0
 23 42  1  0  0  0  0
 24  6  2  0  0  0  0
 25 24  1  0  0  0  0
 25  3  2  0  0  0  0
 28  9  1  0  0  0  0
 31 12  1  0  0  0  0
 34 16  1  0  0  0  0
 35 17  1  0  0  0  0
 36 18  1  0  0  0  0
 41 23  1  0  0  0  0
 43 24  1  0  0  0  0
 44 25  1  0  0  0  0
 45 46  2  0  0  0  0
 47 45  1  0  0  0  0
 47 69  1  0  0  0  0
 48 49  1  0  0  0  0
 48 47  2  0  0  0  0
 49 50  2  0  0  0  0
 50 51  1  0  0  0  0
 50 68  1  0  0  0  0
 51 52  1  0  0  0  0
 52 53  2  0  0  0  0
 52 59  1  0  0  0  0
 53 72  1  0  0  0  0
 54 55  1  0  0  0  0
 54 53  1  0  0  0  0
 56 73  1  0  0  0  0
 56 55  1  0  0  0  0
 56 75  1  0  0  0  0
 57 58  1  0  0  0  0
 57 54  2  0  0  0  0
 58 51  2  0  0  0  0
 59 60  1  0  0  0  0
 60 78  1  0  0  0  0
 60 61  2  0  0  0  0
 61 79  1  0  0  0  0
 62 61  1  0  0  0  0
 62 80  1  0  0  0  0
 63 62  2  0  0  0  0
 64 59  2  0  0  0  0
 64 63  1  0  0  0  0
 65 82  1  1  0  0  0
 65 63  1  0  0  0  0
 66 83  1  0  0  0  0
 66 65  1  0  0  0  0
 67 65  1  0  0  0  0
 67 85  1  0  0  0  0
 68 87  1  0  0  0  0
 69 68  2  0  0  0  0
 69 88  1  0  0  0  0
 70 48  1  0  0  0  0
 71 49  1  0  0  0  0
 74 56  1  0  0  0  0
 76 57  1  0  0  0  0
 77 58  1  0  0  0  0
 81 64  1  0  0  0  0
 84 67  1  0  0  0  0
 86 67  1  0  0  0  0
 89 66  1  0  0  0  0
 90 89  2  0  0  0  0
 91 92  1  0  0  0  0
 91 89  1  0  0  0  0
 92114  1  0  0  0  0
 93115  1  0  0  0  0
 93 92  2  0  0  0  0
 94 93  1  0  0  0  0
 95 94  1  0  0  0  0
 96 95  2  0  0  0  0
 97 96  1  0  0  0  0
 98 97  2  0  0  0  0
 98101  1  0  0  0  0
 99100  1  0  0  0  0
 99 98  1  0  0  0  0
100118  1  0  0  0  0
101102  2  0  0  0  0
102 95  1  0  0  0  0
102121  1  0  0  0  0
103 96  1  0  0  0  0
103108  1  0  0  0  0
104103  2  0  0  0  0
105104  1  0  0  0  0
105106  2  0  0  0  0
106107  1  0  0  0  0
107108  2  0  0  0  0
107109  1  0  0  0  0
108125  1  0  0  0  0
109126  1  6  0  0  0
109110  1  0  0  0  0
110127  1  0  0  0  0
110133  1  0  0  0  0
111128  1  0  0  0  0
111130  1  0  0  0  0
111109  1  0  0  0  0
112 94  2  0  0  0  0
112113  1  0  0  0  0
113 91  2  0  0  0  0
116 97  1  0  0  0  0
117100  1  0  0  0  0
119100  1  0  0  0  0
120101  1  0  0  0  0
122104  1  0  0  0  0
123105  1  0  0  0  0
124106  1  0  0  0  0
129111  1  0  0  0  0
131112  1  0  0  0  0
132113  1  0  0  0  0
133135  1  0  0  0  0
134133  2  0  0  0  0
135136  2  0  0  0  0
135157  1  0  0  0  0
136137  1  0  0  0  0
137159  1  0  0  0  0
137138  2  0  0  0  0
138139  1  0  0  0  0
139146  2  0  0  0  0
139140  1  0  0  0  0
140141  2  0  0  0  0
141142  1  0  0  0  0
141160  1  0  0  0  0
142143  1  0  0  0  0
144143  1  0  0  0  0
144161  1  0  0  0  0
145164  1  0  0  0  0
145142  2  0  0  0  0
146145  1  0  0  0  0
147148  1  0  0  0  0
147140  1  0  0  0  0
148166  1  0  0  0  0
149148  2  0  0  0  0
150151  2  0  0  0  0
150149  1  0  0  0  0
151152  1  0  0  0  0
152147  2  0  0  0  0
153151  1  0  0  0  0
153170  1  1  0  0  0
153155  1  0  0  0  0
154153  1  0  0  0  0
155173  1  0  0  0  0
156138  1  0  0  0  0
156175  1  0  0  0  0
157156  2  0  0  0  0
158136  1  0  0  0  0
162144  1  0  0  0  0
163144  1  0  0  0  0
165146  1  0  0  0  0
167149  1  0  0  0  0
168150  1  0  0  0  0
169152  1  0  0  0  0
171154  1  0  0  0  0
172155  1  0  0  0  0
174155  1  0  0  0  0
176157  1  0  0  0  0
177178  1  0  0  0  0
177179  1  0  0  0  0
180177  1  0  0  0  0
181177  1  0  0  0  0
182183  1  0  0  0  0
183185  1  0  0  0  0
183186  1  0  0  0  0
184183  1  0  0  0  0
184193  1  0  0  0  0
185196  1  0  0  0  0
186187  1  0  0  0  0
187154  1  0  0  0  0
187188  2  0  0  0  0
189182  1  0  0  0  0
190182  1  0  0  0  0
191182  1  0  0  0  0
192184  1  0  0  0  0
194184  1  0  0  0  0
195185  1  0  0  0  0
197185  1  0  0  0  0
M  END
