mop_tetramer.pdb
  -OEChem-09052515383D

197208  0     1  0  0  0  0  0999 V2000
   -2.8770   -5.9990   -1.4090 C   0  0  0  0  0  0  0  0  0  0  0  0
   -3.7950   -6.1400   -2.1990 O   0  0  0  0  0  0  0  0  0  0  0  0
   -2.5130   -4.7150   -0.7660 C   0  0  0  0  0  0  0  0  0  0  0  0
   -1.5680   -4.6710    0.2700 C   0  0  0  0  0  0  0  0  0  0  0  0
   -1.3710   -3.4940    0.9770 C   0  0  0  0  0  0  0  0  0  0  0  0
   -2.0880   -2.3450    0.6370 C   0  0  0  0  0  0  0  0  0  0  0  0
   -1.8410   -1.1000    1.3470 C   0  0  0  0  0  0  0  0  0  0  0  0
   -0.6100   -0.4160    1.2510 C   0  0  0  0  0  0  0  0  0  0  0  0
   -0.5380    0.8510    1.8610 C   0  0  0  0  0  0  0  0  0  0  0  0
   -1.6270    1.4240    2.5220 C   0  0  0  0  0  0  0  0  0  0  0  0
   -1.5140    2.7430    2.8760 O   0  0  0  0  0  0  0  0  0  0  0  0
   -2.7620    3.4350    2.8000 C   0  0  0  0  0  0  0  0  0  0  0  0
   -2.7710    0.6700    2.7370 C   0  0  0  0  0  0  0  0  0  0  0  0
   -2.8830   -0.5750    2.1380 C   0  0  0  0  0  0  0  0  0  0  0  0
    0.5740   -0.9390    0.5100 C   0  0  0  0  0  0  0  0  0  0  0  0
    0.5320   -1.2760   -0.8480 C   0  0  0  0  0  0  0  0  0  0  0  0
    1.6870   -1.6190   -1.5540 C   0  0  0  0  0  0  0  0  0  0  0  0
    2.9130   -1.6900   -0.8970 C   0  0  0  0  0  0  0  0  0  0  0  0
    2.9990   -1.4510    0.4820 C   0  0  0  0  0  0  0  0  0  0  0  0
    1.8080   -1.1000    1.1610 C   0  0  0  0  0  0  0  0  0  0  0  0
    4.3130   -1.6790    1.2270 C   0  0  2  0  0  0  0  0  0  0  0  0
    4.3290   -1.2410    2.6310 N   0  0  0  0  0  0  0  0  0  0  0  0
    5.6280   -1.3180    0.5060 C   0  0  0  0  0  0  0  0  0  0  0  0
   -3.0130   -2.3850   -0.4200 C   0  0  0  0  0  0  0  0  0  0  0  0
   -3.2290   -3.5680   -1.1200 C   0  0  0  0  0  0  0  0  0  0  0  0
   -0.9970   -5.5450    0.5600 H   0  0  0  0  0  0  0  0  0  0  0  0
   -0.6450   -3.4700    1.7880 H   0  0  0  0  0  0  0  0  0  0  0  0
    0.3670    1.4340    1.7500 H   0  0  0  0  0  0  0  0  0  0  0  0
   -2.5700    4.5000    2.6930 H   0  0  0  0  0  0  0  0  0  0  0  0
   -3.3260    3.2600    3.7150 H   0  0  0  0  0  0  0  0  0  0  0  0
   -3.3640    3.1490    1.9370 H   0  0  0  0  0  0  0  0  0  0  0  0
   -3.6030    1.0460    3.3230 H   0  0  0  0  0  0  0  0  0  0  0  0
   -3.8060   -1.1380    2.2670 H   0  0  0  0  0  0  0  0  0  0  0  0
   -0.4050   -1.2410   -1.3950 H   0  0  0  0  0  0  0  0  0  0  0  0
    1.6250   -1.8180   -2.6210 H   0  0  0  0  0  0  0  0  0  0  0  0
    3.7890   -1.9640   -1.4800 H   0  0  0  0  0  0  0  0  0  0  0  0
    1.8230   -0.9480    2.2370 H   0  0  0  0  0  0  0  0  0  0  0  0
    4.3470   -2.7740    1.3180 H   0  0  0  0  0  0  0  0  0  0  0  0
    4.4980   -1.9770    3.3040 H   0  0  0  0  0  0  0  0  0  0  0  0
    6.2820   -0.6930    1.1260 H   0  0  0  0  0  0  0  0  0  0  0  0
    5.4780   -0.8080   -0.4530 H   0  0  0  0  0  0  0  0  0  0  0  0
    6.2090   -2.2230    0.2980 H   0  0  0  0  0  0  0  0  0  0  0  0
   -3.5640   -1.4900   -0.7010 H   0  0  0  0  0  0  0  0  0  0  0  0
   -3.9670   -3.5970   -1.9190 H   0  0  0  0  0  0  0  0  0  0  0  0
    4.0740   -0.0500    3.2670 C   0  0  0  0  0  0  0  0  0  0  0  0
    4.0620   -0.0370    4.4970 O   0  0  0  0  0  0  0  0  0  0  0  0
    3.6990    1.1830    2.5270 C   0  0  0  0  0  0  0  0  0  0  0  0
    4.2430    1.4940    1.2930 C   0  0  0  0  0  0  0  0  0  0  0  0
    3.7570    2.5410    0.5360 C   0  0  0  0  0  0  0  0  0  0  0  0
    2.7450    3.3640    1.0370 C   0  0  0  0  0  0  0  0  0  0  0  0
    2.3410    4.5060    0.2210 C   0  0  0  0  0  0  0  0  0  0  0  0
    1.8140    4.3890   -1.0880 C   0  0  0  0  0  0  0  0  0  0  0  0
    1.5240    5.5990   -1.7480 C   0  0  0  0  0  0  0  0  0  0  0  0
    1.7380    6.8640   -1.1880 C   0  0  0  0  0  0  0  0  0  0  0  0
    1.3020    7.9230   -1.9320 O   0  0  0  0  0  0  0  0  0  0  0  0
    0.9140    9.0890   -1.2090 C   0  0  0  0  0  0  0  0  0  0  0  0
    2.3330    6.9590    0.0550 C   0  0  0  0  0  0  0  0  0  0  0  0
    2.6180    5.7900    0.7560 C   0  0  0  0  0  0  0  0  0  0  0  0
    1.4130    3.1290   -1.7990 C   0  0  0  0  0  0  0  0  0  0  0  0
    0.4310    2.3010   -1.2710 C   0  0  0  0  0  0  0  0  0  0  0  0
   -0.2870    1.4120   -2.0720 C   0  0  0  0  0  0  0  0  0  0  0  0
    0.0640    1.1950   -3.3970 C   0  0  0  0  0  0  0  0  0  0  0  0
    1.1430    1.8830   -3.9480 C   0  0  0  0  0  0  0  0  0  0  0  0
    1.8080    2.8380   -3.1210 C   0  0  0  0  0  0  0  0  0  0  0  0
    1.6160    1.5660   -5.3650 C   0  0  2  0  0  0  0  0  0  0  0  0
    2.4600    2.5990   -5.9540 N   0  0  0  0  0  0  0  0  0  0  0  0
    0.6130    1.0470   -6.4230 C   0  0  0  0  0  0  0  0  0  0  0  0
    2.2740    3.1340    2.3370 C   0  0  0  0  0  0  0  0  0  0  0  0
    2.7380    2.0360    3.0770 C   0  0  0  0  0  0  0  0  0  0  0  0
    5.0650    0.9460    0.8710 H   0  0  0  0  0  0  0  0  0  0  0  0
    4.1660    2.7250   -0.4520 H   0  0  0  0  0  0  0  0  0  0  0  0
    1.0430    5.5430   -2.7140 H   0  0  0  0  0  0  0  0  0  0  0  0
    0.1110    9.5760   -1.7710 H   0  0  0  0  0  0  0  0  0  0  0  0
    1.7590    9.7790   -1.1390 H   0  0  0  0  0  0  0  0  0  0  0  0
    0.5230    8.8750   -0.2100 H   0  0  0  0  0  0  0  0  0  0  0  0
    2.5540    7.9170    0.5130 H   0  0  0  0  0  0  0  0  0  0  0  0
    3.0660    5.8770    1.7450 H   0  0  0  0  0  0  0  0  0  0  0  0
    0.1360    2.4190   -0.2390 H   0  0  0  0  0  0  0  0  0  0  0  0
   -1.1420    0.8840   -1.6520 H   0  0  0  0  0  0  0  0  0  0  0  0
   -0.5090    0.4620   -3.9580 H   0  0  0  0  0  0  0  0  0  0  0  0
    2.6360    3.4160   -3.5310 H   0  0  0  0  0  0  0  0  0  0  0  0
    2.3030    0.7200   -5.2060 H   0  0  0  0  0  0  0  0  0  0  0  0
    3.3820    2.2970   -6.2430 H   0  0  0  0  0  0  0  0  0  0  0  0
    0.4620    1.7630   -7.2390 H   0  0  0  0  0  0  0  0  0  0  0  0
   -0.3700    0.7790   -6.0300 H   0  0  0  0  0  0  0  0  0  0  0  0
    1.0180    0.1550   -6.9160 H   0  0  0  0  0  0  0  0  0  0  0  0
    1.5110    3.7760    2.7760 H   0  0  0  0  0  0  0  0  0  0  0  0
    2.3210    1.8350    4.0660 H   0  0  0  0  0  0  0  0  0  0  0  0
    2.2850    3.9440   -6.1720 C   0  0  0  0  0  0  0  0  0  0  0  0
    3.2370    4.5670   -6.6420 O   0  0  0  0  0  0  0  0  0  0  0  0
    1.0630    4.6920   -5.7580 C   0  0  0  0  0  0  0  0  0  0  0  0
   -0.2260    4.1660   -5.7420 C   0  0  0  0  0  0  0  0  0  0  0  0
   -1.2980    4.8790   -5.2030 C   0  0  0  0  0  0  0  0  0  0  0  0
   -1.1280    6.1580   -4.6720 C   0  0  0  0  0  0  0  0  0  0  0  0
   -2.2660    6.8770   -4.0510 C   0  0  0  0  0  0  0  0  0  0  0  0
   -3.2860    6.2440   -3.2800 C   0  0  0  0  0  0  0  0  0  0  0  0
   -4.3560    7.0510   -2.8400 C   0  0  0  0  0  0  0  0  0  0  0  0
   -4.3860    8.4380   -3.0000 C   0  0  0  0  0  0  0  0  0  0  0  0
   -5.4280    9.0830   -2.3950 O   0  0  0  0  0  0  0  0  0  0  0  0
   -5.1630   10.4160   -1.9660 C   0  0  0  0  0  0  0  0  0  0  0  0
   -3.3700    9.0560   -3.7010 C   0  0  0  0  0  0  0  0  0  0  0  0
   -2.3450    8.2800   -4.2420 C   0  0  0  0  0  0  0  0  0  0  0  0
   -3.1820    4.9050   -2.6130 C   0  0  0  0  0  0  0  0  0  0  0  0
   -2.1090    4.7190   -1.7510 C   0  0  0  0  0  0  0  0  0  0  0  0
   -2.1390    3.7740   -0.7410 C   0  0  0  0  0  0  0  0  0  0  0  0
   -3.1310    2.8170   -0.7090 C   0  0  0  0  0  0  0  0  0  0  0  0
   -4.2120    2.8900   -1.5800 C   0  0  0  0  0  0  0  0  0  0  0  0
   -4.2160    3.9430   -2.5440 C   0  0  0  0  0  0  0  0  0  0  0  0
   -5.3240    1.8670   -1.4530 C   0  0  2  0  0  0  0  0  0  0  0  0
   -6.5980    2.3100   -1.9690 N   0  0  0  0  0  0  0  0  0  0  0  0
   -5.5840    1.1870   -0.0740 C   0  0  0  0  0  0  0  0  0  0  0  0
    0.1550    6.7280   -4.7910 C   0  0  0  0  0  0  0  0  0  0  0  0
    1.2350    6.0080   -5.3230 C   0  0  0  0  0  0  0  0  0  0  0  0
   -0.4570    3.1880   -6.1210 H   0  0  0  0  0  0  0  0  0  0  0  0
   -2.2770    4.4040   -5.1940 H   0  0  0  0  0  0  0  0  0  0  0  0
   -5.1220    6.5940   -2.2310 H   0  0  0  0  0  0  0  0  0  0  0  0
   -5.9670   10.7160   -1.2880 H   0  0  0  0  0  0  0  0  0  0  0  0
   -5.1740   11.1010   -2.8180 H   0  0  0  0  0  0  0  0  0  0  0  0
   -4.2190   10.4880   -1.4140 H   0  0  0  0  0  0  0  0  0  0  0  0
   -3.3490   10.1290   -3.8530 H   0  0  0  0  0  0  0  0  0  0  0  0
   -1.5820    8.8000   -4.8170 H   0  0  0  0  0  0  0  0  0  0  0  0
   -1.2550    5.3780   -1.8060 H   0  0  0  0  0  0  0  0  0  0  0  0
   -1.3620    3.7790    0.0150 H   0  0  0  0  0  0  0  0  0  0  0  0
   -3.0300    2.0200    0.0170 H   0  0  0  0  0  0  0  0  0  0  0  0
   -5.0690    4.0540   -3.2120 H   0  0  0  0  0  0  0  0  0  0  0  0
   -5.0150    1.0460   -2.1170 H   0  0  0  0  0  0  0  0  0  0  0  0
   -7.0880    1.6550   -2.5670 H   0  0  0  0  0  0  0  0  0  0  0  0
   -6.5260    1.5170    0.3800 H   0  0  0  0  0  0  0  0  0  0  0  0
   -4.8080    1.3440    0.6740 H   0  0  0  0  0  0  0  0  0  0  0  0
   -5.6870    0.1030   -0.2030 H   0  0  0  0  0  0  0  0  0  0  0  0
    0.3620    7.7230   -4.4040 H   0  0  0  0  0  0  0  0  0  0  0  0
    2.2240    6.4650   -5.3310 H   0  0  0  0  0  0  0  0  0  0  0  0
   -7.4190    3.3780   -1.6270 C   0  0  0  0  0  0  0  0  0  0  0  0
   -8.5330    3.3900   -2.1450 O   0  0  0  0  0  0  0  0  0  0  0  0
   -6.9740    4.5360   -0.8100 C   0  0  0  0  0  0  0  0  0  0  0  0
   -6.1430    4.5150    0.3160 C   0  0  0  0  0  0  0  0  0  0  0  0
   -5.7340    5.7050    0.9610 C   0  0  0  0  0  0  0  0  0  0  0  0
   -6.1810    6.9590    0.5350 C   0  0  0  0  0  0  0  0  0  0  0  0
   -5.8610    8.2470    1.2310 C   0  0  0  0  0  0  0  0  0  0  0  0
   -4.5970    8.6740    1.7390 C   0  0  0  0  0  0  0  0  0  0  0  0
   -4.4980    9.9690    2.3080 C   0  0  0  0  0  0  0  0  0  0  0  0
   -5.5760   10.8450    2.3790 C   0  0  0  0  0  0  0  0  0  0  0  0
   -5.2870   12.0740    2.9020 O   0  0  0  0  0  0  0  0  0  0  0  0
   -6.3160   13.0500    2.8210 C   0  0  0  0  0  0  0  0  0  0  0  0
   -6.8110   10.4240    1.9260 C   0  0  0  0  0  0  0  0  0  0  0  0
   -6.9470    9.1450    1.3800 C   0  0  0  0  0  0  0  0  0  0  0  0
   -3.3190    7.9410    1.6420 C   0  0  0  0  0  0  0  0  0  0  0  0
   -2.7700    7.6980    0.3920 C   0  0  0  0  0  0  0  0  0  0  0  0
   -1.5330    7.0910    0.2800 C   0  0  0  0  0  0  0  0  0  0  0  0
   -0.8520    6.6270    1.3970 C   0  0  0  0  0  0  0  0  0  0  0  0
   -1.3080    6.9170    2.6770 C   0  0  0  0  0  0  0  0  0  0  0  0
   -2.5230    7.6220    2.7730 C   0  0  0  0  0  0  0  0  0  0  0  0
   -0.4710    6.4580    3.8700 C   0  0  2  0  0  0  0  0  0  0  0  0
   -1.2150    5.5960    4.7680 N   0  0  0  0  0  0  0  0  0  0  0  0
    0.2830    7.6000    4.5480 C   0  0  0  0  0  0  0  0  0  0  0  0
   -7.0600    6.9540   -0.5730 C   0  0  0  0  0  0  0  0  0  0  0  0
   -7.4500    5.7790   -1.2290 C   0  0  0  0  0  0  0  0  0  0  0  0
   -5.7790    3.5850    0.7270 H   0  0  0  0  0  0  0  0  0  0  0  0
   -5.0680    5.6280    1.8150 H   0  0  0  0  0  0  0  0  0  0  0  0
   -3.5300   10.3210    2.6670 H   0  0  0  0  0  0  0  0  0  0  0  0
   -5.9160   13.9890    3.2110 H   0  0  0  0  0  0  0  0  0  0  0  0
   -7.1730   12.7660    3.4410 H   0  0  0  0  0  0  0  0  0  0  0  0
   -6.6190   13.2200    1.7820 H   0  0  0  0  0  0  0  0  0  0  0  0
   -7.6920   11.0520    1.9670 H   0  0  0  0  0  0  0  0  0  0  0  0
   -7.9430    8.8550    1.0470 H   0  0  0  0  0  0  0  0  0  0  0  0
   -3.2850    8.0230   -0.5030 H   0  0  0  0  0  0  0  0  0  0  0  0
   -1.0940    6.9870   -0.7030 H   0  0  0  0  0  0  0  0  0  0  0  0
    0.0530    6.0540    1.2560 H   0  0  0  0  0  0  0  0  0  0  0  0
   -2.8660    7.9480    3.7510 H   0  0  0  0  0  0  0  0  0  0  0  0
    0.3060    5.7900    3.4840 H   0  0  0  0  0  0  0  0  0  0  0  0
   -1.3700    4.6570    4.4210 H   0  0  0  0  0  0  0  0  0  0  0  0
   -0.3840    8.3520    4.9770 H   0  0  0  0  0  0  0  0  0  0  0  0
    0.9330    8.1090    3.8250 H   0  0  0  0  0  0  0  0  0  0  0  0
    0.9220    7.2120    5.3500 H   0  0  0  0  0  0  0  0  0  0  0  0
   -7.4300    7.8920   -0.9860 H   0  0  0  0  0  0  0  0  0  0  0  0
   -8.0970    5.8500   -2.1030 H   0  0  0  0  0  0  0  0  0  0  0  0
   -3.0050   -7.9620   -0.2170 C   0  0  0  0  0  0  0  0  0  0  0  0
   -2.1640   -6.9980   -0.8360 O   0  0  0  0  0  0  0  0  0  0  0  0
   -3.7380   -7.4640    0.4290 H   0  0  0  0  0  0  0  0  0  0  0  0
   -2.3770   -8.5910    0.4190 H   0  0  0  0  0  0  0  0  0  0  0  0
   -3.5050   -8.5820   -0.9650 H   0  0  0  0  0  0  0  0  0  0  0  0
   -5.5380    4.4660    4.9400 C   0  0  0  0  0  0  0  0  0  0  0  0
   -4.6720    5.5410    5.6180 C   0  0  0  0  0  0  0  0  0  0  0  0
   -5.0910    6.8900    5.0220 C   0  0  0  0  0  0  0  0  0  0  0  0
   -4.8940    5.5020    7.1260 C   0  0  0  0  0  0  0  0  0  0  0  0
   -3.3000    5.1720    5.3100 O   0  0  0  0  0  0  0  0  0  0  0  0
   -2.2930    6.0420    5.4860 C   0  0  0  0  0  0  0  0  0  0  0  0
   -2.3520    7.1080    6.0670 O   0  0  0  0  0  0  0  0  0  0  0  0
   -6.6070    4.6410    5.0980 H   0  0  0  0  0  0  0  0  0  0  0  0
   -5.3600    4.4520    3.8580 H   0  0  0  0  0  0  0  0  0  0  0  0
   -5.2850    3.4640    5.3040 H   0  0  0  0  0  0  0  0  0  0  0  0
   -4.9290    6.8850    3.9430 H   0  0  0  0  0  0  0  0  0  0  0  0
   -4.5280    7.7310    5.4330 H   0  0  0  0  0  0  0  0  0  0  0  0
   -6.1520    7.0970    5.1940 H   0  0  0  0  0  0  0  0  0  0  0  0
   -4.6440    4.5140    7.5270 H   0  0  0  0  0  0  0  0  0  0  0  0
   -4.2530    6.2220    7.6410 H   0  0  0  0  0  0  0  0  0  0  0  0
   -5.9340    5.7270    7.3790 H   0  0  0  0  0  0  0  0  0  0  0  0
  1178  1  0  0  0  0
  1  3  1  0  0  0  0
  1  2  2  0  0  0  0
  3  4  2  0  0  0  0
  4 26  1  0  0  0  0
  4  5  1  0  0  0  0
  5 27  1  0  0  0  0
  5  6  2  0  0  0  0
  6  7  1  0  0  0  0
  7 14  2  0  0  0  0
  7  8  1  0  0  0  0
  8  9  2  0  0  0  0
  9 10  1  0  0  0  0
 10 13  2  0  0  0  0
 10 11  1  0  0  0  0
 11 12  1  0  0  0  0
 12 30  1  0  0  0  0
 13 32  1  0  0  0  0
 14 33  1  0  0  0  0
 13 14  1  0  0  0  0
 15 20  1  0  0  0  0
  8 15  1  0  0  0  0
 15 16  2  0  0  0  0
 17 18  2  0  0  0  0
 16 17  1  0  0  0  0
 18 19  1  0  0  0  0
 19 20  2  0  0  0  0
 19 21  1  0  0  0  0
 20 37  1  0  0  0  0
 21 38  1  0  0  0  0
 21 22  1  0  0  0  0
 22 45  1  0  0  0  0
 22 39  1  0  0  0  0
 23 40  1  0  0  0  0
 21 23  1  0  0  0  0
  6 24  1  0  0  0  0
  3 25  1  0  0  0  0
 24 25  2  0  0  0  0
  9 28  1  0  0  0  0
 12 29  1  0  0  0  0
 12 31  1  0  0  0  0
 16 34  1  0  0  0  0
 17 35  1  0  0  0  0
 18 36  1  0  0  0  0
 23 41  1  0  0  0  0
 23 42  1  0  0  0  0
 24 43  1  0  0  0  0
 25 44  1  0  0  0  0
 45 46  2  0  0  0  0
 47 69  1  0  0  0  0
 45 47  1  0  0  0  0
 47 48  2  0  0  0  0
 49 50  2  0  0  0  0
 48 49  1  0  0  0  0
 50 68  1  0  0  0  0
 51 58  1  0  0  0  0
 50 51  1  0  0  0  0
 51 52  2  0  0  0  0
 53 54  2  0  0  0  0
 52 53  1  0  0  0  0
 54 57  1  0  0  0  0
 55 56  1  0  0  0  0
 54 55  1  0  0  0  0
 56 74  1  0  0  0  0
 56 75  1  0  0  0  0
 57 76  1  0  0  0  0
 57 58  2  0  0  0  0
 58 77  1  0  0  0  0
 59 60  2  0  0  0  0
 52 59  1  0  0  0  0
 60 78  1  0  0  0  0
 61 79  1  0  0  0  0
 60 61  1  0  0  0  0
 61 62  2  0  0  0  0
 62 63  1  0  0  0  0
 63 64  2  0  0  0  0
 59 64  1  0  0  0  0
 65 82  1  0  0  0  0
 63 65  1  0  0  0  0
 65 66  1  0  0  0  0
 67 85  1  0  0  0  0
 65 67  1  0  0  0  0
 68 87  1  0  0  0  0
 68 69  2  0  0  0  0
 69 88  1  0  0  0  0
 48 70  1  0  0  0  0
 49 71  1  0  0  0  0
 53 72  1  0  0  0  0
 56 73  1  0  0  0  0
 62 80  1  0  0  0  0
 64 81  1  0  0  0  0
 66 83  1  0  0  0  0
 67 84  1  0  0  0  0
 67 86  1  0  0  0  0
 66 89  1  0  0  0  0
 89 91  1  0  0  0  0
 89 90  2  0  0  0  0
 91 92  2  0  0  0  0
 91113  1  0  0  0  0
 92 93  1  0  0  0  0
 93115  1  0  0  0  0
 93 94  2  0  0  0  0
 94 95  1  0  0  0  0
 95 96  1  0  0  0  0
 96 97  2  0  0  0  0
 96103  1  0  0  0  0
 97116  1  0  0  0  0
 97 98  1  0  0  0  0
 98 99  1  0  0  0  0
 99100  1  0  0  0  0
100119  1  0  0  0  0
100117  1  0  0  0  0
 98101  2  0  0  0  0
 95102  2  0  0  0  0
101102  1  0  0  0  0
103108  1  0  0  0  0
103104  2  0  0  0  0
104105  1  0  0  0  0
105106  2  0  0  0  0
105123  1  0  0  0  0
106124  1  0  0  0  0
107109  1  0  0  0  0
106107  1  0  0  0  0
107108  2  0  0  0  0
109126  1  0  0  0  0
109111  1  0  0  0  0
110133  1  0  0  0  0
109110  1  0  0  0  0
111128  1  0  0  0  0
111129  1  0  0  0  0
 94112  1  0  0  0  0
112131  1  0  0  0  0
112113  2  0  0  0  0
 92114  1  0  0  0  0
100118  1  0  0  0  0
101120  1  0  0  0  0
102121  1  0  0  0  0
104122  1  0  0  0  0
108125  1  0  0  0  0
110127  1  0  0  0  0
111130  1  0  0  0  0
113132  1  0  0  0  0
133135  1  0  0  0  0
133134  2  0  0  0  0
135136  2  0  0  0  0
136158  1  0  0  0  0
136137  1  0  0  0  0
137159  1  0  0  0  0
137138  2  0  0  0  0
138139  1  0  0  0  0
139146  2  0  0  0  0
139140  1  0  0  0  0
140141  2  0  0  0  0
141142  1  0  0  0  0
141160  1  0  0  0  0
142143  1  0  0  0  0
143144  1  0  0  0  0
144161  1  0  0  0  0
144162  1  0  0  0  0
145164  1  0  0  0  0
142145  2  0  0  0  0
145146  1  0  0  0  0
140147  1  0  0  0  0
147152  1  0  0  0  0
147148  2  0  0  0  0
148149  1  0  0  0  0
149150  2  0  0  0  0
150151  1  0  0  0  0
151152  2  0  0  0  0
151153  1  0  0  0  0
152169  1  0  0  0  0
153170  1  0  0  0  0
153155  1  0  0  0  0
153154  1  0  0  0  0
154187  1  0  0  0  0
155172  1  0  0  0  0
155174  1  0  0  0  0
138156  1  0  0  0  0
135157  1  0  0  0  0
156157  2  0  0  0  0
144163  1  0  0  0  0
146165  1  0  0  0  0
148166  1  0  0  0  0
149167  1  0  0  0  0
150168  1  0  0  0  0
154171  1  0  0  0  0
155173  1  0  0  0  0
156175  1  0  0  0  0
157176  1  0  0  0  0
177180  1  0  0  0  0
177179  1  0  0  0  0
177178  1  0  0  0  0
177181  1  0  0  0  0
182189  1  0  0  0  0
182191  1  0  0  0  0
182183  1  0  0  0  0
183185  1  0  0  0  0
184194  1  0  0  0  0
184193  1  0  0  0  0
183184  1  0  0  0  0
185197  1  0  0  0  0
185195  1  0  0  0  0
185196  1  0  0  0  0
186187  1  0  0  0  0
183186  1  0  0  0  0
187188  2  0  0  0  0
182190  1  0  0  0  0
184192  1  0  0  0  0
M  END
> <atom.dprop.PartialCharge>
0.648060 -0.538530 -0.139000 -0.079560 -0.127160 0.003530 -0.076340 0.009180 -0.194130 0.124950 -0.328310 0.111270 -0.152350 -0.076890 -0.042150 -0.112070 -0.129310 -0.113350 -0.103980 -0.104870 0.146310 -0.566040 -0.103190 -0.127160 -0.079560 0.150360 0.146450 0.146670 0.045240 0.045240 0.045240 0.152690 0.145980 0.135850 0.133350 0.134740 0.132500 0.089840 0.303670 0.045400 0.045400 0.045400 0.146450 0.150360 0.675700 -0.600230 -0.144370 -0.095950 -0.124320 -0.012820 -0.068190 0.007650 -0.200570 0.124030 -0.321710 0.110930 -0.155950 -0.084940 -0.044870 -0.109480 -0.133960 -0.108320 -0.099500 -0.108540 0.151760 -0.564720 -0.112700 -0.124320 -0.095950 0.145050 0.151550 0.143800 0.045720 0.045720 0.045720 0.155460 0.143640 0.136940 0.132370 0.143450 0.139730 0.088210 0.319230 0.044090 0.044090 0.044090 0.151550 0.145050 0.673430 -0.613460 -0.139670 -0.092850 -0.128740 -0.008700 -0.076780 0.007040 -0.148080 0.126190 -0.326630 0.113630 -0.201730 -0.082470 -0.039130 -0.109280 -0.128540 -0.117330 -0.105020 -0.100590 0.148660 -0.562150 -0.102720 -0.128740 -0.092850 0.147890 0.140730 0.155940 0.045190 0.045190 0.045190 0.142060 0.147780 0.138320 0.133400 0.123600 0.138470 0.086220 0.305900 0.046520 0.046520 0.046520 0.140730 0.147890 0.684100 -0.616740 -0.144050 -0.092570 -0.123420 -0.007070 -0.079210 0.006940 -0.144880 0.128220 -0.325340 0.112460 -0.202330 -0.081940 -0.043750 -0.107660 -0.132500 -0.119110 -0.098690 -0.092000 0.161620 -0.561250 -0.112810 -0.123420 -0.092570 0.143430 0.142250 0.158420 0.046320 0.046320 0.046320 0.141650 0.141630 0.136470 0.133880 0.133650 0.143500 0.090840 0.328520 0.046770 0.046770 0.046770 0.142250 0.143430 0.124780 -0.434170 0.049420 0.049420 0.049420 -0.114030 0.187930 -0.114030 -0.114030 -0.451390 0.752110 -0.599390 0.051210 0.051210 0.051210 0.051210 0.051210 0.051210 0.051210 0.051210 0.051210

$$$$
