mop_tetramer.pdb
 OpenBabel09242414593D

197208  0  0  1  0  0  0  0  0999 V2000
   -3.4630   -4.7140    0.0210 C   0  0  0  0  0  0  0  0  0  0  0  0
   -3.9270   -5.2680   -0.9620 O   0  0  0  0  0  0  0  0  0  0  0  0
   -2.9980   -3.3090    0.0270 C   0  0  0  0  0  0  0  0  0  0  0  0
   -2.0180   -2.8420    0.9060 C   0  0  0  0  0  0  0  0  0  0  0  0
   -1.6790   -1.4840    0.9140 C   0  0  0  0  0  0  0  0  0  0  0  0
   -2.3130   -0.5750    0.0450 C   0  0  0  0  0  0  0  0  0  0  0  0
   -1.9860    0.8650    0.0490 C   0  0  0  0  0  0  0  0  0  0  0  0
   -0.7040    1.3600   -0.2790 C   0  0  0  0  0  0  0  0  0  0  0  0
   -0.4590    2.7470   -0.1920 C   0  0  0  0  0  0  0  0  0  0  0  0
   -1.4450    3.6480    0.1760 C   0  0  0  0  0  0  0  0  0  0  0  0
   -1.0360    4.9500    0.2210 O   0  0  0  0  0  0  0  0  0  0  0  0
   -2.0260    5.9240    0.5140 C   0  0  0  0  0  0  0  0  0  0  0  0
   -2.7180    3.1700    0.4650 C   0  0  0  0  0  0  0  0  0  0  0  0
   -2.9820    1.7930    0.4030 C   0  0  0  0  0  0  0  0  0  0  0  0
    0.4030    0.4830   -0.6710 C   0  0  0  0  0  0  0  0  0  0  0  0
    0.3310   -0.3670   -1.7860 C   0  0  0  0  0  0  0  0  0  0  0  0
    1.3760   -1.2320   -2.1010 C   0  0  0  0  0  0  0  0  0  0  0  0
    2.5210   -1.2330   -1.3170 C   0  0  0  0  0  0  0  0  0  0  0  0
    2.6200   -0.3720   -0.2130 C   0  0  0  0  0  0  0  0  0  0  0  0
    1.5610    0.4710    0.1080 C   0  0  0  0  0  0  0  0  0  0  0  0
    3.8240   -0.3940    0.6940 C   0  0  1  0  0  0  0  0  0  0  0  0
    3.8560   -1.7140    1.3080 N   0  0  0  0  0  0  0  0  0  0  0  0
    5.0450   -0.0490   -0.1650 C   0  0  0  0  0  0  0  0  0  0  0  0
   -3.2710   -1.0710   -0.8540 C   0  0  0  0  0  0  0  0  0  0  0  0
   -3.6040   -2.4260   -0.8700 C   0  0  0  0  0  0  0  0  0  0  0  0
   -1.5150   -3.5220    1.5880 H   0  0  0  0  0  0  0  0  0  0  0  0
   -0.9090   -1.1370    1.6040 H   0  0  0  0  0  0  0  0  0  0  0  0
    0.5410    3.1290   -0.4170 H   0  0  0  0  0  0  0  0  0  0  0  0
   -1.5390    6.9040    0.5130 H   0  0  0  0  0  0  0  0  0  0  0  0
   -2.4570    5.7670    1.5090 H   0  0  0  0  0  0  0  0  0  0  0  0
   -2.8020    5.9320   -0.2580 H   0  0  0  0  0  0  0  0  0  0  0  0
   -3.5270    3.8290    0.7530 H   0  0  0  0  0  0  0  0  0  0  0  0
   -3.9820    1.4410    0.6560 H   0  0  0  0  0  0  0  0  0  0  0  0
   -0.5630   -0.3780   -2.4070 H   0  0  0  0  0  0  0  0  0  0  0  0
    1.2940   -1.9110   -2.9440 H   0  0  0  0  0  0  0  0  0  0  0  0
    3.3250   -1.9210   -1.5590 H   0  0  0  0  0  0  0  0  0  0  0  0
    1.6230    1.0970    0.9970 H   0  0  0  0  0  0  0  0  0  0  0  0
    3.7330    0.3560    1.4910 H   0  0  0  0  0  0  0  0  0  0  0  0
    4.1480   -2.4370    0.6710 H   0  0  0  0  0  0  0  0  0  0  0  0
    5.3560   -0.8840   -0.8010 H   0  0  0  0  0  0  0  0  0  0  0  0
    5.9000    0.2380    0.4370 H   0  0  0  0  0  0  0  0  0  0  0  0
    4.8410    0.8110   -0.8140 H   0  0  0  0  0  0  0  0  0  0  0  0
   -3.7570   -0.3990   -1.5560 H   0  0  0  0  0  0  0  0  0  0  0  0
   -4.3530   -2.7860   -1.5720 H   0  0  0  0  0  0  0  0  0  0  0  0
    2.9110   -2.0530    2.2650 C   0  0  0  0  0  0  0  0  0  0  0  0
    2.4450   -1.2230    3.0450 O   0  0  0  0  0  0  0  0  0  0  0  0
    2.3680   -3.4550    2.2400 C   0  0  0  0  0  0  0  0  0  0  0  0
    2.8770   -4.4440    1.3900 C   0  0  0  0  0  0  0  0  0  0  0  0
    2.2460   -5.6860    1.2710 C   0  0  0  0  0  0  0  0  0  0  0  0
    1.1000   -5.9980    2.0150 C   0  0  0  0  0  0  0  0  0  0  0  0
    0.4400   -7.3120    1.8590 C   0  0  0  0  0  0  0  0  0  0  0  0
    1.0360   -8.5230    2.2680 C   0  0  0  0  0  0  0  0  0  0  0  0
    0.3930   -9.7540    2.0110 C   0  0  0  0  0  0  0  0  0  0  0  0
   -0.8220   -9.8150    1.3460 C   0  0  0  0  0  0  0  0  0  0  0  0
   -1.3040  -11.0750    1.1360 O   0  0  0  0  0  0  0  0  0  0  0  0
   -2.6730  -11.1720    0.7680 C   0  0  0  0  0  0  0  0  0  0  0  0
   -1.3990   -8.6300    0.9130 C   0  0  0  0  0  0  0  0  0  0  0  0
   -0.7770   -7.3980    1.1720 C   0  0  0  0  0  0  0  0  0  0  0  0
    2.3910   -8.5710    2.7970 C   0  0  0  0  0  0  0  0  0  0  0  0
    2.7790   -7.9530    3.9940 C   0  0  0  0  0  0  0  0  0  0  0  0
    4.1170   -7.9310    4.3790 C   0  0  0  0  0  0  0  0  0  0  0  0
    5.0700   -8.5470    3.5810 C   0  0  0  0  0  0  0  0  0  0  0  0
    4.6890   -9.1880    2.3910 C   0  0  0  0  0  0  0  0  0  0  0  0
    3.3600   -9.1850    2.0040 C   0  0  0  0  0  0  0  0  0  0  0  0
    5.6810   -9.8400    1.4680 C   0  0  1  0  0  0  0  0  0  0  0  0
    6.5710   -8.7920    0.9990 N   0  0  0  0  0  0  0  0  0  0  0  0
    6.3480  -10.9590    2.2720 C   0  0  0  0  0  0  0  0  0  0  0  0
    0.6210   -5.0270    2.9070 C   0  0  0  0  0  0  0  0  0  0  0  0
    1.2450   -3.7710    3.0170 C   0  0  0  0  0  0  0  0  0  0  0  0
    3.7590   -4.2890    0.7900 H   0  0  0  0  0  0  0  0  0  0  0  0
    2.6670   -6.4210    0.5840 H   0  0  0  0  0  0  0  0  0  0  0  0
    0.8800  -10.6870    2.2930 H   0  0  0  0  0  0  0  0  0  0  0  0
   -2.9350  -12.2340    0.7380 H   0  0  0  0  0  0  0  0  0  0  0  0
   -2.8460  -10.7590   -0.2310 H   0  0  0  0  0  0  0  0  0  0  0  0
   -3.3140  -10.6890    1.5130 H   0  0  0  0  0  0  0  0  0  0  0  0
   -2.3150   -8.6330    0.3360 H   0  0  0  0  0  0  0  0  0  0  0  0
   -1.2280   -6.4880    0.7830 H   0  0  0  0  0  0  0  0  0  0  0  0
    2.0420   -7.4520    4.6080 H   0  0  0  0  0  0  0  0  0  0  0  0
    4.4160   -7.4150    5.2850 H   0  0  0  0  0  0  0  0  0  0  0  0
    6.1140   -8.5090    3.8770 H   0  0  0  0  0  0  0  0  0  0  0  0
    3.0770   -9.6260    1.0480 H   0  0  0  0  0  0  0  0  0  0  0  0
    5.1850  -10.2790    0.5940 H   0  0  0  0  0  0  0  0  0  0  0  0
    7.2670   -8.5370    1.6760 H   0  0  0  0  0  0  0  0  0  0  0  0
    7.0730  -10.5760    2.9960 H   0  0  0  0  0  0  0  0  0  0  0  0
    6.8610  -11.6690    1.6340 H   0  0  0  0  0  0  0  0  0  0  0  0
    5.6030  -11.5460    2.8230 H   0  0  0  0  0  0  0  0  0  0  0  0
   -0.2530   -5.2390    3.5210 H   0  0  0  0  0  0  0  0  0  0  0  0
    0.8280   -3.0290    3.6970 H   0  0  0  0  0  0  0  0  0  0  0  0
    6.1040   -7.8130    0.1280 C   0  0  0  0  0  0  0  0  0  0  0  0
    5.2480   -8.0290   -0.7190 O   0  0  0  0  0  0  0  0  0  0  0  0
    6.6230   -6.4130    0.3420 C   0  0  0  0  0  0  0  0  0  0  0  0
    7.5350   -6.1070    1.3580 C   0  0  0  0  0  0  0  0  0  0  0  0
    7.8560   -4.7900    1.6790 C   0  0  0  0  0  0  0  0  0  0  0  0
    7.2940   -3.7240    0.9750 C   0  0  0  0  0  0  0  0  0  0  0  0
    7.6070   -2.3440    1.3880 C   0  0  0  0  0  0  0  0  0  0  0  0
    8.8120   -1.6890    1.0490 C   0  0  0  0  0  0  0  0  0  0  0  0
    8.9940   -0.3420    1.4270 C   0  0  0  0  0  0  0  0  0  0  0  0
    8.0450    0.3430    2.1840 C   0  0  0  0  0  0  0  0  0  0  0  0
    8.3310    1.6510    2.4530 O   0  0  0  0  0  0  0  0  0  0  0  0
    7.2010    2.4980    2.6420 C   0  0  0  0  0  0  0  0  0  0  0  0
    6.9400   -0.3510    2.6560 C   0  0  0  0  0  0  0  0  0  0  0  0
    6.7330   -1.6800    2.2640 C   0  0  0  0  0  0  0  0  0  0  0  0
    9.9680   -2.4400    0.5410 C   0  0  0  0  0  0  0  0  0  0  0  0
   10.0010   -3.0740   -0.7030 C   0  0  0  0  0  0  0  0  0  0  0  0
   11.0780   -3.8960   -1.0430 C   0  0  0  0  0  0  0  0  0  0  0  0
   12.1350   -4.0830   -0.1470 C   0  0  0  0  0  0  0  0  0  0  0  0
   12.1270   -3.4510    1.1050 C   0  0  0  0  0  0  0  0  0  0  0  0
   11.0430   -2.6320    1.4250 C   0  0  0  0  0  0  0  0  0  0  0  0
   13.1710   -3.7120    2.1790 C   0  0  1  0  0  0  0  0  0  0  0  0
   13.1200   -5.1150    2.5610 N   0  0  0  0  0  0  0  0  0  0  0  0
   14.5600   -3.3050    1.6870 C   0  0  0  0  0  0  0  0  0  0  0  0
    6.4370   -4.0220   -0.0980 C   0  0  0  0  0  0  0  0  0  0  0  0
    6.0970   -5.3550   -0.4090 C   0  0  0  0  0  0  0  0  0  0  0  0
    8.0070   -6.8650    1.9610 H   0  0  0  0  0  0  0  0  0  0  0  0
    8.5530   -4.5970    2.4910 H   0  0  0  0  0  0  0  0  0  0  0  0
    9.9160    0.1710    1.1580 H   0  0  0  0  0  0  0  0  0  0  0  0
    7.5650    3.5280    2.7120 H   0  0  0  0  0  0  0  0  0  0  0  0
    6.6810    2.2690    3.5760 H   0  0  0  0  0  0  0  0  0  0  0  0
    6.5160    2.4450    1.7870 H   0  0  0  0  0  0  0  0  0  0  0  0
    6.2020    0.1120    3.3040 H   0  0  0  0  0  0  0  0  0  0  0  0
    5.8670   -2.2050    2.6590 H   0  0  0  0  0  0  0  0  0  0  0  0
    9.1690   -2.9720   -1.3940 H   0  0  0  0  0  0  0  0  0  0  0  0
   11.0760   -4.4200   -1.9960 H   0  0  0  0  0  0  0  0  0  0  0  0
   12.9420   -4.7560   -0.4220 H   0  0  0  0  0  0  0  0  0  0  0  0
   10.9910   -2.1890    2.4210 H   0  0  0  0  0  0  0  0  0  0  0  0
   12.9420   -3.1220    3.0750 H   0  0  0  0  0  0  0  0  0  0  0  0
   13.6560   -5.7260    1.9700 H   0  0  0  0  0  0  0  0  0  0  0  0
   14.8870   -3.9100    0.8340 H   0  0  0  0  0  0  0  0  0  0  0  0
   15.3050   -3.4270    2.4800 H   0  0  0  0  0  0  0  0  0  0  0  0
   14.5680   -2.2550    1.3710 H   0  0  0  0  0  0  0  0  0  0  0  0
    6.0090   -3.2180   -0.6940 H   0  0  0  0  0  0  0  0  0  0  0  0
    5.3910   -5.5550   -1.2140 H   0  0  0  0  0  0  0  0  0  0  0  0
   11.9700   -5.6070    3.1710 C   0  0  0  0  0  0  0  0  0  0  0  0
   11.3180   -4.9650    3.9880 O   0  0  0  0  0  0  0  0  0  0  0  0
   11.4770   -6.9460    2.7090 C   0  0  0  0  0  0  0  0  0  0  0  0
   12.0110   -7.5640    1.5780 C   0  0  0  0  0  0  0  0  0  0  0  0
   11.4920   -8.7560    1.0740 C   0  0  0  0  0  0  0  0  0  0  0  0
   10.3930   -9.3620    1.6710 C   0  0  0  0  0  0  0  0  0  0  0  0
    9.8510  -10.5980    1.0790 C   0  0  0  0  0  0  0  0  0  0  0  0
   10.3720  -11.8800    1.3600 C   0  0  0  0  0  0  0  0  0  0  0  0
    9.7280  -13.0140    0.8170 C   0  0  0  0  0  0  0  0  0  0  0  0
    8.6360  -12.8970   -0.0440 C   0  0  0  0  0  0  0  0  0  0  0  0
    8.0740  -14.0710   -0.4610 O   0  0  0  0  0  0  0  0  0  0  0  0
    6.6830  -14.0100   -0.7680 C   0  0  0  0  0  0  0  0  0  0  0  0
    8.2450  -11.6320   -0.4600 C   0  0  0  0  0  0  0  0  0  0  0  0
    8.8590  -10.5010    0.0900 C   0  0  0  0  0  0  0  0  0  0  0  0
   11.6950  -12.0430    1.9830 C   0  0  0  0  0  0  0  0  0  0  0  0
   11.9920  -11.6710    3.2960 C   0  0  0  0  0  0  0  0  0  0  0  0
   13.3130  -11.6980    3.7550 C   0  0  0  0  0  0  0  0  0  0  0  0
   14.3510  -12.1050    2.9110 C   0  0  0  0  0  0  0  0  0  0  0  0
   14.0790  -12.5010    1.5980 C   0  0  0  0  0  0  0  0  0  0  0  0
   12.7500  -12.4690    1.1570 C   0  0  0  0  0  0  0  0  0  0  0  0
   15.1580  -12.8770    0.5990 C   0  0  1  0  0  0  0  0  0  0  0  0
   15.9750  -11.7270    0.2570 N   0  0  0  0  0  0  0  0  0  0  0  0
   15.9860  -14.0640    1.0820 C   0  0  0  0  0  0  0  0  0  0  0  0
    9.8440   -8.7490    2.8130 C   0  0  0  0  0  0  0  0  0  0  0  0
   10.3770   -7.5500    3.3260 C   0  0  0  0  0  0  0  0  0  0  0  0
   12.8180   -7.1150    1.0280 H   0  0  0  0  0  0  0  0  0  0  0  0
   11.9490   -9.2150    0.1980 H   0  0  0  0  0  0  0  0  0  0  0  0
   10.1110  -14.0090    1.0410 H   0  0  0  0  0  0  0  0  0  0  0  0
    6.3400  -15.0310   -0.9630 H   0  0  0  0  0  0  0  0  0  0  0  0
    6.4970  -13.4240   -1.6730 H   0  0  0  0  0  0  0  0  0  0  0  0
    6.1050  -13.6200    0.0780 H   0  0  0  0  0  0  0  0  0  0  0  0
    7.4460  -11.4830   -1.1790 H   0  0  0  0  0  0  0  0  0  0  0  0
    8.5450   -9.5220   -0.2630 H   0  0  0  0  0  0  0  0  0  0  0  0
   11.2070  -11.3110    3.9550 H   0  0  0  0  0  0  0  0  0  0  0  0
   13.5360  -11.3700    4.7680 H   0  0  0  0  0  0  0  0  0  0  0  0
   15.3720  -12.0850    3.2820 H   0  0  0  0  0  0  0  0  0  0  0  0
   12.5330  -12.7120    0.1160 H   0  0  0  0  0  0  0  0  0  0  0  0
   14.6750  -13.1970   -0.3350 H   0  0  0  0  0  0  0  0  0  0  0  0
   16.8000  -11.5060    0.7960 H   0  0  0  0  0  0  0  0  0  0  0  0
   16.5450  -13.8360    1.9950 H   0  0  0  0  0  0  0  0  0  0  0  0
   16.7090  -14.3670    0.3170 H   0  0  0  0  0  0  0  0  0  0  0  0
   15.3390  -14.9250    1.2910 H   0  0  0  0  0  0  0  0  0  0  0  0
    8.9840   -9.1920    3.3090 H   0  0  0  0  0  0  0  0  0  0  0  0
    9.9090   -7.0720    4.1850 H   0  0  0  0  0  0  0  0  0  0  0  0
   -4.0360   -6.4910    1.4390 C   0  0  0  0  0  0  0  0  0  0  0  0
   -3.4090   -5.2170    1.2790 O   0  0  0  0  0  0  0  0  0  0  0  0
   -5.0900   -6.3460    1.6850 H   0  0  0  0  0  0  0  0  0  0  0  0
   -3.5510   -7.0080    2.2720 H   0  0  0  0  0  0  0  0  0  0  0  0
   -3.9480   -7.1160    0.5460 H   0  0  0  0  0  0  0  0  0  0  0  0
   17.1820   -7.5290   -1.1980 C   0  0  0  0  0  0  0  0  0  0  0  0
   15.9380   -8.4240   -1.1680 C   0  0  0  0  0  0  0  0  0  0  0  0
   14.9020   -7.7550   -0.2740 C   0  0  0  0  0  0  0  0  0  0  0  0
   15.4060   -8.5740   -2.6010 C   0  0  0  0  0  0  0  0  0  0  0  0
   16.3480   -9.6830   -0.5670 O   0  0  0  0  0  0  0  0  0  0  0  0
   15.4650  -10.7140   -0.5050 C   0  0  0  0  0  0  0  0  0  0  0  0
   14.3590  -10.7300   -1.0240 O   0  0  0  0  0  0  0  0  0  0  0  0
   16.9510   -6.5390   -1.6110 H   0  0  0  0  0  0  0  0  0  0  0  0
   17.5910   -7.3910   -0.1920 H   0  0  0  0  0  0  0  0  0  0  0  0
   17.9720   -7.9810   -1.8050 H   0  0  0  0  0  0  0  0  0  0  0  0
   15.2430   -7.7040    0.7660 H   0  0  0  0  0  0  0  0  0  0  0  0
   13.9850   -8.3440   -0.2800 H   0  0  0  0  0  0  0  0  0  0  0  0
   14.6540   -6.7440   -0.6130 H   0  0  0  0  0  0  0  0  0  0  0  0
   16.0920   -9.1680   -3.2120 H   0  0  0  0  0  0  0  0  0  0  0  0
   14.4330   -9.0730   -2.6350 H   0  0  0  0  0  0  0  0  0  0  0  0
   15.2630   -7.5960   -3.0740 H   0  0  0  0  0  0  0  0  0  0  0  0
  1  3  1  0  0  0  0
  1178  1  0  0  0  0
  2  1  2  0  0  0  0
  3  4  1  0  0  0  0
  4  5  2  0  0  0  0
  4 26  1  0  0  0  0
  5 27  1  0  0  0  0
  6  7  1  0  0  0  0
  6  5  1  0  0  0  0
  7 14  1  0  0  0  0
  8  9  1  0  0  0  0
  8  7  2  0  0  0  0
  9 10  2  0  0  0  0
 10 11  1  0  0  0  0
 10 13  1  0  0  0  0
 11 12  1  0  0  0  0
 12 30  1  0  0  0  0
 13 32  1  0  0  0  0
 14 13  2  0  0  0  0
 14 33  1  0  0  0  0
 15  8  1  0  0  0  0
 15 20  1  0  0  0  0
 16 15  2  0  0  0  0
 17 16  1  0  0  0  0
 17 18  2  0  0  0  0
 18 19  1  0  0  0  0
 19 20  2  0  0  0  0
 19 21  1  0  0  0  0
 20 37  1  0  0  0  0
 21 22  1  0  0  0  0
 21 38  1  1  0  0  0
 22 45  1  0  0  0  0
 23 41  1  0  0  0  0
 23 21  1  0  0  0  0
 24  6  2  0  0  0  0
 25 24  1  0  0  0  0
 25  3  2  0  0  0  0
 28  9  1  0  0  0  0
 29 12  1  0  0  0  0
 31 12  1  0  0  0  0
 34 16  1  0  0  0  0
 35 17  1  0  0  0  0
 36 18  1  0  0  0  0
 39 22  1  0  0  0  0
 40 23  1  0  0  0  0
 42 23  1  0  0  0  0
 43 24  1  0  0  0  0
 44 25  1  0  0  0  0
 45 46  2  0  0  0  0
 47 45  1  0  0  0  0
 47 69  1  0  0  0  0
 48 47  2  0  0  0  0
 49 48  1  0  0  0  0
 49 50  2  0  0  0  0
 50 68  1  0  0  0  0
 51 50  1  0  0  0  0
 51 52  1  0  0  0  0
 52 59  1  0  0  0  0
 53 52  2  0  0  0  0
 53 72  1  0  0  0  0
 54 53  1  0  0  0  0
 55 54  1  0  0  0  0
 56 55  1  0  0  0  0
 56 75  1  0  0  0  0
 57 58  1  0  0  0  0
 57 54  2  0  0  0  0
 58 51  2  0  0  0  0
 59 60  1  0  0  0  0
 60 61  2  0  0  0  0
 60 78  1  0  0  0  0
 61 79  1  0  0  0  0
 62 80  1  0  0  0  0
 62 61  1  0  0  0  0
 63 62  2  0  0  0  0
 64 63  1  0  0  0  0
 64 59  2  0  0  0  0
 65 82  1  6  0  0  0
 65 67  1  0  0  0  0
 65 63  1  0  0  0  0
 66 65  1  0  0  0  0
 66 83  1  0  0  0  0
 67 86  1  0  0  0  0
 67 84  1  0  0  0  0
 68 69  2  0  0  0  0
 68 87  1  0  0  0  0
 69 88  1  0  0  0  0
 70 48  1  0  0  0  0
 71 49  1  0  0  0  0
 73 56  1  0  0  0  0
 74 56  1  0  0  0  0
 76 57  1  0  0  0  0
 77 58  1  0  0  0  0
 81 64  1  0  0  0  0
 85 67  1  0  0  0  0
 89 91  1  0  0  0  0
 89 66  1  0  0  0  0
 90 89  2  0  0  0  0
 91 92  1  0  0  0  0
 92 93  2  0  0  0  0
 92114  1  0  0  0  0
 93115  1  0  0  0  0
 94 95  1  0  0  0  0
 94 93  1  0  0  0  0
 95102  1  0  0  0  0
 96 95  2  0  0  0  0
 96 97  1  0  0  0  0
 97 98  2  0  0  0  0
 98 99  1  0  0  0  0
 98101  1  0  0  0  0
 99100  1  0  0  0  0
100117  1  0  0  0  0
100118  1  0  0  0  0
101120  1  0  0  0  0
102101  2  0  0  0  0
102121  1  0  0  0  0
103 96  1  0  0  0  0
103108  1  0  0  0  0
104103  2  0  0  0  0
105104  1  0  0  0  0
105106  2  0  0  0  0
106107  1  0  0  0  0
107108  2  0  0  0  0
107109  1  0  0  0  0
108125  1  0  0  0  0
109110  1  0  0  0  0
109126  1  1  0  0  0
110133  1  0  0  0  0
111109  1  0  0  0  0
111129  1  0  0  0  0
112 94  2  0  0  0  0
113112  1  0  0  0  0
113 91  2  0  0  0  0
116 97  1  0  0  0  0
119100  1  0  0  0  0
122104  1  0  0  0  0
123105  1  0  0  0  0
124106  1  0  0  0  0
127110  1  0  0  0  0
128111  1  0  0  0  0
130111  1  0  0  0  0
131112  1  0  0  0  0
132113  1  0  0  0  0
133134  2  0  0  0  0
135133  1  0  0  0  0
135157  1  0  0  0  0
136135  2  0  0  0  0
137136  1  0  0  0  0
137138  2  0  0  0  0
138156  1  0  0  0  0
139140  1  0  0  0  0
139138  1  0  0  0  0
140147  1  0  0  0  0
141160  1  0  0  0  0
141140  2  0  0  0  0
142141  1  0  0  0  0
143142  1  0  0  0  0
144143  1  0  0  0  0
144163  1  0  0  0  0
145142  2  0  0  0  0
145146  1  0  0  0  0
146139  2  0  0  0  0
147148  1  0  0  0  0
148149  2  0  0  0  0
148166  1  0  0  0  0
149167  1  0  0  0  0
150168  1  0  0  0  0
150149  1  0  0  0  0
151150  2  0  0  0  0
152151  1  0  0  0  0
152147  2  0  0  0  0
153170  1  6  0  0  0
153155  1  0  0  0  0
153151  1  0  0  0  0
154153  1  0  0  0  0
154171  1  0  0  0  0
155174  1  0  0  0  0
155172  1  0  0  0  0
156175  1  0  0  0  0
156157  2  0  0  0  0
157176  1  0  0  0  0
158136  1  0  0  0  0
159137  1  0  0  0  0
161144  1  0  0  0  0
162144  1  0  0  0  0
164145  1  0  0  0  0
165146  1  0  0  0  0
169152  1  0  0  0  0
173155  1  0  0  0  0
177179  1  0  0  0  0
177180  1  0  0  0  0
178177  1  0  0  0  0
181177  1  0  0  0  0
182183  1  0  0  0  0
182190  1  0  0  0  0
183186  1  0  0  0  0
183184  1  0  0  0  0
184192  1  0  0  0  0
185183  1  0  0  0  0
186187  1  0  0  0  0
187154  1  0  0  0  0
188187  2  0  0  0  0
189182  1  0  0  0  0
191182  1  0  0  0  0
193184  1  0  0  0  0
194184  1  0  0  0  0
195185  1  0  0  0  0
196185  1  0  0  0  0
197185  1  0  0  0  0
M  END
