mop_tetramer.pdb
 OpenBabel07232513303D

197208  0  0  1  0  0  0  0  0999 V2000
   -3.3530   -4.7530    0.0260 C   0  0  0  0  0  0  0  0  0  0  0  0
   -3.8940   -5.2680   -0.9360 O   0  0  0  0  0  0  0  0  0  0  0  0
   -2.8750   -3.3570    0.0420 C   0  0  0  0  0  0  0  0  0  0  0  0
   -1.8950   -2.8950    0.9220 C   0  0  0  0  0  0  0  0  0  0  0  0
   -1.5760   -1.5310    0.9380 C   0  0  0  0  0  0  0  0  0  0  0  0
   -2.2240   -0.6300    0.0750 C   0  0  0  0  0  0  0  0  0  0  0  0
   -1.9130    0.8150    0.0750 C   0  0  0  0  0  0  0  0  0  0  0  0
   -0.6320    1.3150   -0.2180 C   0  0  0  0  0  0  0  0  0  0  0  0
   -0.3830    2.6960   -0.1080 C   0  0  0  0  0  0  0  0  0  0  0  0
   -1.3940    3.5950    0.2070 C   0  0  0  0  0  0  0  0  0  0  0  0
   -0.9880    4.8970    0.2700 O   0  0  0  0  0  0  0  0  0  0  0  0
   -1.9970    5.8680    0.4980 C   0  0  0  0  0  0  0  0  0  0  0  0
   -2.6800    3.1120    0.4160 C   0  0  0  0  0  0  0  0  0  0  0  0
   -2.9310    1.7360    0.3620 C   0  0  0  0  0  0  0  0  0  0  0  0
    0.4750    0.4450   -0.5990 C   0  0  0  0  0  0  0  0  0  0  0  0
    0.4140   -0.4270   -1.7060 C   0  0  0  0  0  0  0  0  0  0  0  0
    1.4560   -1.2950   -2.0040 C   0  0  0  0  0  0  0  0  0  0  0  0
    2.5970   -1.2610   -1.2340 C   0  0  0  0  0  0  0  0  0  0  0  0
    2.6750   -0.3730   -0.1400 C   0  0  0  0  0  0  0  0  0  0  0  0
    1.6220    0.4590    0.1860 C   0  0  0  0  0  0  0  0  0  0  0  0
    3.8720   -0.3680    0.7580 C   0  0  1  0  0  0  0  0  0  0  0  0
    3.8560   -1.6840    1.3840 N   0  0  0  0  0  0  0  0  0  0  0  0
    5.0530   -0.0310   -0.1690 C   0  0  0  0  0  0  0  0  0  0  0  0
   -3.1710   -1.1270   -0.8300 C   0  0  0  0  0  0  0  0  0  0  0  0
   -3.4910   -2.4810   -0.8500 C   0  0  0  0  0  0  0  0  0  0  0  0
   -1.3830   -3.5720    1.5950 H   0  0  0  0  0  0  0  0  0  0  0  0
   -0.8070   -1.1820    1.6330 H   0  0  0  0  0  0  0  0  0  0  0  0
    0.6210    3.0820   -0.2780 H   0  0  0  0  0  0  0  0  0  0  0  0
   -1.5140    6.8500    0.5120 H   0  0  0  0  0  0  0  0  0  0  0  0
   -2.4780    5.7170    1.4690 H   0  0  0  0  0  0  0  0  0  0  0  0
   -2.7290    5.8640   -0.3160 H   0  0  0  0  0  0  0  0  0  0  0  0
   -3.5100    3.7720    0.6370 H   0  0  0  0  0  0  0  0  0  0  0  0
   -3.9410    1.3780    0.5570 H   0  0  0  0  0  0  0  0  0  0  0  0
   -0.4790   -0.4540   -2.3200 H   0  0  0  0  0  0  0  0  0  0  0  0
    1.3810   -1.9950   -2.8250 H   0  0  0  0  0  0  0  0  0  0  0  0
    3.4000   -1.9530   -1.4400 H   0  0  0  0  0  0  0  0  0  0  0  0
    1.6770    1.0900    1.0720 H   0  0  0  0  0  0  0  0  0  0  0  0
    3.8020    0.3960    1.5490 H   0  0  0  0  0  0  0  0  0  0  0  0
    4.1260   -2.4070    0.7420 H   0  0  0  0  0  0  0  0  0  0  0  0
    5.3010   -0.8530   -0.8480 H   0  0  0  0  0  0  0  0  0  0  0  0
    5.9640    0.2330    0.3480 H   0  0  0  0  0  0  0  0  0  0  0  0
    4.8200    0.8500   -0.7800 H   0  0  0  0  0  0  0  0  0  0  0  0
   -3.6650   -0.4590   -1.5280 H   0  0  0  0  0  0  0  0  0  0  0  0
   -4.2380   -2.8420   -1.5540 H   0  0  0  0  0  0  0  0  0  0  0  0
    2.9010   -2.0180    2.3380 C   0  0  0  0  0  0  0  0  0  0  0  0
    2.4330   -1.1870    3.1370 O   0  0  0  0  0  0  0  0  0  0  0  0
    2.3610   -3.4240    2.3060 C   0  0  0  0  0  0  0  0  0  0  0  0
    2.8860   -4.4030    1.4540 C   0  0  0  0  0  0  0  0  0  0  0  0
    2.2770   -5.6570    1.3100 C   0  0  0  0  0  0  0  0  0  0  0  0
    1.1370   -6.0000    2.0440 C   0  0  0  0  0  0  0  0  0  0  0  0
    0.5030   -7.3300    1.8710 C   0  0  0  0  0  0  0  0  0  0  0  0
    1.1210   -8.5500    2.2010 C   0  0  0  0  0  0  0  0  0  0  0  0
    0.4950   -9.7950    1.9280 C   0  0  0  0  0  0  0  0  0  0  0  0
   -0.7600   -9.8570    1.3580 C   0  0  0  0  0  0  0  0  0  0  0  0
   -1.2810  -11.1000    1.1550 O   0  0  0  0  0  0  0  0  0  0  0  0
   -2.6590  -11.1490    0.7950 C   0  0  0  0  0  0  0  0  0  0  0  0
   -1.3590   -8.6610    1.0070 C   0  0  0  0  0  0  0  0  0  0  0  0
   -0.7350   -7.4260    1.2510 C   0  0  0  0  0  0  0  0  0  0  0  0
    2.4790   -8.5750    2.6950 C   0  0  0  0  0  0  0  0  0  0  0  0
    2.8750   -7.9190    3.8700 C   0  0  0  0  0  0  0  0  0  0  0  0
    4.2140   -7.8780    4.2410 C   0  0  0  0  0  0  0  0  0  0  0  0
    5.1390   -8.5270    3.4530 C   0  0  0  0  0  0  0  0  0  0  0  0
    4.7300   -9.2030    2.2780 C   0  0  0  0  0  0  0  0  0  0  0  0
    3.4170   -9.2020    1.8960 C   0  0  0  0  0  0  0  0  0  0  0  0
    5.7130   -9.8690    1.3810 C   0  0  1  0  0  0  0  0  0  0  0  0
    6.5560   -8.7860    0.9110 N   0  0  0  0  0  0  0  0  0  0  0  0
    6.3330  -10.9600    2.2680 C   0  0  0  0  0  0  0  0  0  0  0  0
    0.6350   -5.0380    2.9380 C   0  0  0  0  0  0  0  0  0  0  0  0
    1.2340   -3.7670    3.0660 C   0  0  0  0  0  0  0  0  0  0  0  0
    3.7740   -4.2360    0.8670 H   0  0  0  0  0  0  0  0  0  0  0  0
    2.7160   -6.3670    0.6110 H   0  0  0  0  0  0  0  0  0  0  0  0
    1.0220  -10.7260    2.1360 H   0  0  0  0  0  0  0  0  0  0  0  0
   -2.9560  -12.1980    0.7140 H   0  0  0  0  0  0  0  0  0  0  0  0
   -2.8290  -10.6840   -0.1820 H   0  0  0  0  0  0  0  0  0  0  0  0
   -3.2820  -10.6810    1.5660 H   0  0  0  0  0  0  0  0  0  0  0  0
   -2.3170   -8.6660    0.5120 H   0  0  0  0  0  0  0  0  0  0  0  0
   -1.2060   -6.5110    0.9160 H   0  0  0  0  0  0  0  0  0  0  0  0
    2.1400   -7.3890    4.4690 H   0  0  0  0  0  0  0  0  0  0  0  0
    4.5230   -7.3240    5.1200 H   0  0  0  0  0  0  0  0  0  0  0  0
    6.1870   -8.4900    3.7380 H   0  0  0  0  0  0  0  0  0  0  0  0
    3.1320   -9.6470    0.9420 H   0  0  0  0  0  0  0  0  0  0  0  0
    5.2340  -10.3350    0.5100 H   0  0  0  0  0  0  0  0  0  0  0  0
    7.1980   -8.4750    1.6240 H   0  0  0  0  0  0  0  0  0  0  0  0
    6.9800  -10.5490    3.0480 H   0  0  0  0  0  0  0  0  0  0  0  0
    6.9090  -11.6980    1.7290 H   0  0  0  0  0  0  0  0  0  0  0  0
    5.5430  -11.5410    2.7620 H   0  0  0  0  0  0  0  0  0  0  0  0
   -0.2440   -5.2680    3.5370 H   0  0  0  0  0  0  0  0  0  0  0  0
    0.7950   -3.0380    3.7460 H   0  0  0  0  0  0  0  0  0  0  0  0
    6.0760   -7.8290    0.0230 C   0  0  0  0  0  0  0  0  0  0  0  0
    5.2450   -8.0740   -0.8480 O   0  0  0  0  0  0  0  0  0  0  0  0
    6.5520   -6.4070    0.2420 C   0  0  0  0  0  0  0  0  0  0  0  0
    7.4780   -6.0900    1.2420 C   0  0  0  0  0  0  0  0  0  0  0  0
    7.7810   -4.7770    1.5700 C   0  0  0  0  0  0  0  0  0  0  0  0
    7.2100   -3.7020    0.8900 C   0  0  0  0  0  0  0  0  0  0  0  0
    7.5490   -2.3280    1.3150 C   0  0  0  0  0  0  0  0  0  0  0  0
    8.7890   -1.7080    1.0730 C   0  0  0  0  0  0  0  0  0  0  0  0
    8.9930   -0.3630    1.4690 C   0  0  0  0  0  0  0  0  0  0  0  0
    8.0030    0.3730    2.1140 C   0  0  0  0  0  0  0  0  0  0  0  0
    8.2860    1.6900    2.3340 O   0  0  0  0  0  0  0  0  0  0  0  0
    7.1780    2.5510    2.5830 C   0  0  0  0  0  0  0  0  0  0  0  0
    6.8530   -0.2910    2.5060 C   0  0  0  0  0  0  0  0  0  0  0  0
    6.6600   -1.6330    2.1410 C   0  0  0  0  0  0  0  0  0  0  0  0
    9.9380   -2.4780    0.5920 C   0  0  0  0  0  0  0  0  0  0  0  0
    9.9590   -3.1170   -0.6510 C   0  0  0  0  0  0  0  0  0  0  0  0
   11.0220   -3.9460   -0.9980 C   0  0  0  0  0  0  0  0  0  0  0  0
   12.0890   -4.1180   -0.1160 C   0  0  0  0  0  0  0  0  0  0  0  0
   12.0950   -3.4770    1.1320 C   0  0  0  0  0  0  0  0  0  0  0  0
   11.0090   -2.6740    1.4750 C   0  0  0  0  0  0  0  0  0  0  0  0
   13.1760   -3.7040    2.1740 C   0  0  1  0  0  0  0  0  0  0  0  0
   13.1570   -5.1060    2.5580 N   0  0  0  0  0  0  0  0  0  0  0  0
   14.5280   -3.2600    1.6140 C   0  0  0  0  0  0  0  0  0  0  0  0
    6.3300   -4.0090   -0.1700 C   0  0  0  0  0  0  0  0  0  0  0  0
    5.9950   -5.3440   -0.4860 C   0  0  0  0  0  0  0  0  0  0  0  0
    7.9860   -6.8450    1.8200 H   0  0  0  0  0  0  0  0  0  0  0  0
    8.4980   -4.5850    2.3760 H   0  0  0  0  0  0  0  0  0  0  0  0
    9.9560    0.1120    1.2840 H   0  0  0  0  0  0  0  0  0  0  0  0
    7.5700    3.5580    2.7520 H   0  0  0  0  0  0  0  0  0  0  0  0
    6.6320    2.2610    3.4860 H   0  0  0  0  0  0  0  0  0  0  0  0
    6.5080    2.5950    1.7160 H   0  0  0  0  0  0  0  0  0  0  0  0
    6.0470    0.2070    3.0360 H   0  0  0  0  0  0  0  0  0  0  0  0
    5.7750   -2.1420    2.5030 H   0  0  0  0  0  0  0  0  0  0  0  0
    9.1190   -3.0100   -1.3330 H   0  0  0  0  0  0  0  0  0  0  0  0
   11.0050   -4.4750   -1.9470 H   0  0  0  0  0  0  0  0  0  0  0  0
   12.8990   -4.7820   -0.4030 H   0  0  0  0  0  0  0  0  0  0  0  0
   10.9630   -2.2390    2.4750 H   0  0  0  0  0  0  0  0  0  0  0  0
   12.9700   -3.1110    3.0740 H   0  0  0  0  0  0  0  0  0  0  0  0
   13.6170   -5.6980    1.8930 H   0  0  0  0  0  0  0  0  0  0  0  0
   14.8280   -3.8510    0.7410 H   0  0  0  0  0  0  0  0  0  0  0  0
   15.3180   -3.3560    2.3630 H   0  0  0  0  0  0  0  0  0  0  0  0
   14.4850   -2.2090    1.2970 H   0  0  0  0  0  0  0  0  0  0  0  0
    5.8800   -3.2070   -0.7540 H   0  0  0  0  0  0  0  0  0  0  0  0
    5.2760   -5.5480   -1.2800 H   0  0  0  0  0  0  0  0  0  0  0  0
   12.0310   -5.5940    3.2290 C   0  0  0  0  0  0  0  0  0  0  0  0
   11.4420   -4.9500    4.0900 O   0  0  0  0  0  0  0  0  0  0  0  0
   11.4790   -6.9190    2.7770 C   0  0  0  0  0  0  0  0  0  0  0  0
   12.0500   -7.6190    1.7220 C   0  0  0  0  0  0  0  0  0  0  0  0
   11.5020   -8.7990    1.2210 C   0  0  0  0  0  0  0  0  0  0  0  0
   10.3430   -9.3400    1.7610 C   0  0  0  0  0  0  0  0  0  0  0  0
    9.7990  -10.5780    1.1600 C   0  0  0  0  0  0  0  0  0  0  0  0
   10.3510  -11.8630    1.3440 C   0  0  0  0  0  0  0  0  0  0  0  0
    9.7150  -12.9870    0.7560 C   0  0  0  0  0  0  0  0  0  0  0  0
    8.5600  -12.8640   -0.0150 C   0  0  0  0  0  0  0  0  0  0  0  0
    7.9830  -14.0320   -0.4240 O   0  0  0  0  0  0  0  0  0  0  0  0
    6.6000  -13.9750   -0.7680 C   0  0  0  0  0  0  0  0  0  0  0  0
    8.1250  -11.5900   -0.3350 C   0  0  0  0  0  0  0  0  0  0  0  0
    8.7750  -10.4730    0.2140 C   0  0  0  0  0  0  0  0  0  0  0  0
   11.6770  -12.0360    1.9490 C   0  0  0  0  0  0  0  0  0  0  0  0
   11.9800  -11.6380    3.2550 C   0  0  0  0  0  0  0  0  0  0  0  0
   13.2970  -11.6640    3.7150 C   0  0  0  0  0  0  0  0  0  0  0  0
   14.3260  -12.1000    2.8780 C   0  0  0  0  0  0  0  0  0  0  0  0
   14.0470  -12.5110    1.5720 C   0  0  0  0  0  0  0  0  0  0  0  0
   12.7200  -12.4830    1.1260 C   0  0  0  0  0  0  0  0  0  0  0  0
   15.1280  -12.8850    0.5790 C   0  0  1  0  0  0  0  0  0  0  0  0
   15.9640  -11.7320    0.2780 N   0  0  0  0  0  0  0  0  0  0  0  0
   15.8950  -14.1130    1.0640 C   0  0  0  0  0  0  0  0  0  0  0  0
    9.7510   -8.6460    2.8370 C   0  0  0  0  0  0  0  0  0  0  0  0
   10.3050   -7.4410    3.3310 C   0  0  0  0  0  0  0  0  0  0  0  0
   12.9280   -7.2520    1.2290 H   0  0  0  0  0  0  0  0  0  0  0  0
   11.9930   -9.3070    0.3880 H   0  0  0  0  0  0  0  0  0  0  0  0
   10.1480  -13.9780    0.8850 H   0  0  0  0  0  0  0  0  0  0  0  0
    6.2880  -14.9830   -1.0610 H   0  0  0  0  0  0  0  0  0  0  0  0
    6.4190  -13.3200   -1.6260 H   0  0  0  0  0  0  0  0  0  0  0  0
    5.9880  -13.6740    0.0910 H   0  0  0  0  0  0  0  0  0  0  0  0
    7.2500  -11.4130   -0.9530 H   0  0  0  0  0  0  0  0  0  0  0  0
    8.4540   -9.4870   -0.1020 H   0  0  0  0  0  0  0  0  0  0  0  0
   11.1990  -11.2500    3.9020 H   0  0  0  0  0  0  0  0  0  0  0  0
   13.5240  -11.3060    4.7150 H   0  0  0  0  0  0  0  0  0  0  0  0
   15.3490  -12.0820    3.2450 H   0  0  0  0  0  0  0  0  0  0  0  0
   12.5040  -12.7340    0.0870 H   0  0  0  0  0  0  0  0  0  0  0  0
   14.6600  -13.1730   -0.3730 H   0  0  0  0  0  0  0  0  0  0  0  0
   16.7610  -11.5120    0.8550 H   0  0  0  0  0  0  0  0  0  0  0  0
   16.4250  -13.9300    2.0040 H   0  0  0  0  0  0  0  0  0  0  0  0
   16.6280  -14.4420    0.3210 H   0  0  0  0  0  0  0  0  0  0  0  0
   15.1990  -14.9460    1.2360 H   0  0  0  0  0  0  0  0  0  0  0  0
    8.8410   -9.0200    3.2980 H   0  0  0  0  0  0  0  0  0  0  0  0
    9.8000   -6.8960    4.1300 H   0  0  0  0  0  0  0  0  0  0  0  0
   -3.8240   -6.5840    1.3740 C   0  0  0  0  0  0  0  0  0  0  0  0
   -3.2170   -5.2980    1.2590 O   0  0  0  0  0  0  0  0  0  0  0  0
   -4.8850   -6.4730    1.5900 H   0  0  0  0  0  0  0  0  0  0  0  0
   -3.3510   -7.1150    2.2050 H   0  0  0  0  0  0  0  0  0  0  0  0
   -3.6970   -7.1690    0.4590 H   0  0  0  0  0  0  0  0  0  0  0  0
   17.0900   -7.4710   -1.1900 C   0  0  0  0  0  0  0  0  0  0  0  0
   15.8660   -8.3920   -1.1220 C   0  0  0  0  0  0  0  0  0  0  0  0
   14.8380   -7.7180   -0.2280 C   0  0  0  0  0  0  0  0  0  0  0  0
   15.3050   -8.5650   -2.5410 C   0  0  0  0  0  0  0  0  0  0  0  0
   16.3020   -9.6420   -0.5060 O   0  0  0  0  0  0  0  0  0  0  0  0
   15.4330  -10.6870   -0.4410 C   0  0  0  0  0  0  0  0  0  0  0  0
   14.3120  -10.6960   -0.9250 O   0  0  0  0  0  0  0  0  0  0  0  0
   16.8240   -6.4900   -1.6030 H   0  0  0  0  0  0  0  0  0  0  0  0
   17.5220   -7.3140   -0.1960 H   0  0  0  0  0  0  0  0  0  0  0  0
   17.8730   -7.9080   -1.8170 H   0  0  0  0  0  0  0  0  0  0  0  0
   15.1910   -7.6450    0.8070 H   0  0  0  0  0  0  0  0  0  0  0  0
   13.9270   -8.3150   -0.2230 H   0  0  0  0  0  0  0  0  0  0  0  0
   14.5740   -6.7140   -0.5790 H   0  0  0  0  0  0  0  0  0  0  0  0
   16.0070   -9.1130   -3.1750 H   0  0  0  0  0  0  0  0  0  0  0  0
   14.3610   -9.1180   -2.5570 H   0  0  0  0  0  0  0  0  0  0  0  0
   15.0900   -7.5940   -3.0000 H   0  0  0  0  0  0  0  0  0  0  0  0
  1  3  1  0  0  0  0
  1178  1  0  0  0  0
  2  1  2  0  0  0  0
  3  4  1  0  0  0  0
  4  5  2  0  0  0  0
  4 26  1  0  0  0  0
  5 27  1  0  0  0  0
  6  7  1  0  0  0  0
  6  5  1  0  0  0  0
  7 14  1  0  0  0  0
  8  9  1  0  0  0  0
  8  7  2  0  0  0  0
  9 10  2  0  0  0  0
 10 11  1  0  0  0  0
 10 13  1  0  0  0  0
 11 12  1  0  0  0  0
 12 29  1  0  0  0  0
 12 30  1  0  0  0  0
 13 32  1  0  0  0  0
 14 13  2  0  0  0  0
 14 33  1  0  0  0  0
 15  8  1  0  0  0  0
 15 20  1  0  0  0  0
 16 15  2  0  0  0  0
 17 16  1  0  0  0  0
 17 18  2  0  0  0  0
 18 19  1  0  0  0  0
 19 20  2  0  0  0  0
 19 21  1  0  0  0  0
 20 37  1  0  0  0  0
 21 22  1  0  0  0  0
 21 38  1  1  0  0  0
 22 45  1  0  0  0  0
 23 41  1  0  0  0  0
 23 21  1  0  0  0  0
 24  6  2  0  0  0  0
 25 24  1  0  0  0  0
 25  3  2  0  0  0  0
 28  9  1  0  0  0  0
 31 12  1  0  0  0  0
 34 16  1  0  0  0  0
 35 17  1  0  0  0  0
 36 18  1  0  0  0  0
 39 22  1  0  0  0  0
 40 23  1  0  0  0  0
 42 23  1  0  0  0  0
 43 24  1  0  0  0  0
 44 25  1  0  0  0  0
 45 46  2  0  0  0  0
 47 45  1  0  0  0  0
 47 69  1  0  0  0  0
 48 47  2  0  0  0  0
 49 48  1  0  0  0  0
 49 50  2  0  0  0  0
 50 68  1  0  0  0  0
 51 50  1  0  0  0  0
 51 52  1  0  0  0  0
 52 59  1  0  0  0  0
 53 72  1  0  0  0  0
 53 52  2  0  0  0  0
 54 53  1  0  0  0  0
 55 54  1  0  0  0  0
 56 55  1  0  0  0  0
 56 75  1  0  0  0  0
 57 58  1  0  0  0  0
 57 54  2  0  0  0  0
 58 51  2  0  0  0  0
 59 60  1  0  0  0  0
 60 61  2  0  0  0  0
 60 78  1  0  0  0  0
 61 79  1  0  0  0  0
 62 80  1  0  0  0  0
 62 61  1  0  0  0  0
 63 62  2  0  0  0  0
 64 63  1  0  0  0  0
 64 59  2  0  0  0  0
 65 82  1  6  0  0  0
 65 67  1  0  0  0  0
 65 63  1  0  0  0  0
 66 65  1  0  0  0  0
 66 83  1  0  0  0  0
 67 86  1  0  0  0  0
 67 84  1  0  0  0  0
 68 69  2  0  0  0  0
 68 87  1  0  0  0  0
 69 88  1  0  0  0  0
 70 48  1  0  0  0  0
 71 49  1  0  0  0  0
 73 56  1  0  0  0  0
 74 56  1  0  0  0  0
 76 57  1  0  0  0  0
 77 58  1  0  0  0  0
 81 64  1  0  0  0  0
 85 67  1  0  0  0  0
 89 91  1  0  0  0  0
 89 66  1  0  0  0  0
 90 89  2  0  0  0  0
 91 92  1  0  0  0  0
 92 93  2  0  0  0  0
 92114  1  0  0  0  0
 93115  1  0  0  0  0
 94 95  1  0  0  0  0
 94 93  1  0  0  0  0
 95102  1  0  0  0  0
 96 95  2  0  0  0  0
 96 97  1  0  0  0  0
 97 98  2  0  0  0  0
 98 99  1  0  0  0  0
 98101  1  0  0  0  0
 99100  1  0  0  0  0
100117  1  0  0  0  0
100118  1  0  0  0  0
101120  1  0  0  0  0
102121  1  0  0  0  0
102101  2  0  0  0  0
103 96  1  0  0  0  0
103108  1  0  0  0  0
104103  2  0  0  0  0
105104  1  0  0  0  0
105106  2  0  0  0  0
106107  1  0  0  0  0
107108  2  0  0  0  0
107109  1  0  0  0  0
108125  1  0  0  0  0
109110  1  0  0  0  0
109126  1  1  0  0  0
110133  1  0  0  0  0
111109  1  0  0  0  0
111129  1  0  0  0  0
112 94  2  0  0  0  0
113112  1  0  0  0  0
113 91  2  0  0  0  0
116 97  1  0  0  0  0
119100  1  0  0  0  0
122104  1  0  0  0  0
123105  1  0  0  0  0
124106  1  0  0  0  0
127110  1  0  0  0  0
128111  1  0  0  0  0
130111  1  0  0  0  0
131112  1  0  0  0  0
132113  1  0  0  0  0
133134  2  0  0  0  0
135133  1  0  0  0  0
135157  1  0  0  0  0
136135  2  0  0  0  0
137136  1  0  0  0  0
137138  2  0  0  0  0
138156  1  0  0  0  0
139140  1  0  0  0  0
139138  1  0  0  0  0
140147  1  0  0  0  0
141160  1  0  0  0  0
141140  2  0  0  0  0
142141  1  0  0  0  0
143142  1  0  0  0  0
144143  1  0  0  0  0
144163  1  0  0  0  0
145142  2  0  0  0  0
145146  1  0  0  0  0
146139  2  0  0  0  0
147148  1  0  0  0  0
148149  2  0  0  0  0
148166  1  0  0  0  0
149167  1  0  0  0  0
150168  1  0  0  0  0
150149  1  0  0  0  0
151150  2  0  0  0  0
152151  1  0  0  0  0
152147  2  0  0  0  0
153170  1  6  0  0  0
153155  1  0  0  0  0
153151  1  0  0  0  0
154153  1  0  0  0  0
154171  1  0  0  0  0
155174  1  0  0  0  0
155172  1  0  0  0  0
156175  1  0  0  0  0
156157  2  0  0  0  0
157176  1  0  0  0  0
158136  1  0  0  0  0
159137  1  0  0  0  0
161144  1  0  0  0  0
162144  1  0  0  0  0
164145  1  0  0  0  0
165146  1  0  0  0  0
169152  1  0  0  0  0
173155  1  0  0  0  0
177179  1  0  0  0  0
177180  1  0  0  0  0
178177  1  0  0  0  0
181177  1  0  0  0  0
182183  1  0  0  0  0
182190  1  0  0  0  0
183186  1  0  0  0  0
183184  1  0  0  0  0
184193  1  0  0  0  0
184192  1  0  0  0  0
185183  1  0  0  0  0
186187  1  0  0  0  0
187154  1  0  0  0  0
188187  2  0  0  0  0
189182  1  0  0  0  0
191182  1  0  0  0  0
194184  1  0  0  0  0
195185  1  0  0  0  0
196185  1  0  0  0  0
197185  1  0  0  0  0
M  END
