mop_tetramer.pdb
 OpenBabel09262413173D

197208  0  0  1  0  0  0  0  0999 V2000
   -3.3880   -4.7410    0.1430 C   0  0  0  0  0  0  0  0  0  0  0  0
   -3.7880   -5.3190   -0.8540 O   0  0  0  0  0  0  0  0  0  0  0  0
   -2.9580   -3.3260    0.1440 C   0  0  0  0  0  0  0  0  0  0  0  0
   -1.9900   -2.8290    1.0190 C   0  0  0  0  0  0  0  0  0  0  0  0
   -1.6630   -1.4680    0.9920 C   0  0  0  0  0  0  0  0  0  0  0  0
   -2.3020   -0.5870    0.0980 C   0  0  0  0  0  0  0  0  0  0  0  0
   -1.9840    0.8550    0.0690 C   0  0  0  0  0  0  0  0  0  0  0  0
   -0.7040    1.3500   -0.2590 C   0  0  0  0  0  0  0  0  0  0  0  0
   -0.4560    2.7350   -0.1760 C   0  0  0  0  0  0  0  0  0  0  0  0
   -1.4540    3.6390    0.1740 C   0  0  0  0  0  0  0  0  0  0  0  0
   -1.0440    4.9400    0.2250 O   0  0  0  0  0  0  0  0  0  0  0  0
   -2.0380    5.9120    0.5180 C   0  0  0  0  0  0  0  0  0  0  0  0
   -2.7320    3.1600    0.4370 C   0  0  0  0  0  0  0  0  0  0  0  0
   -2.9900    1.7840    0.3900 C   0  0  0  0  0  0  0  0  0  0  0  0
    0.4010    0.4720   -0.6530 C   0  0  0  0  0  0  0  0  0  0  0  0
    0.3200   -0.3800   -1.7670 C   0  0  0  0  0  0  0  0  0  0  0  0
    1.3630   -1.2450   -2.0860 C   0  0  0  0  0  0  0  0  0  0  0  0
    2.5110   -1.2410   -1.3100 C   0  0  0  0  0  0  0  0  0  0  0  0
    2.6170   -0.3750   -0.2110 C   0  0  0  0  0  0  0  0  0  0  0  0
    1.5610    0.4650    0.1180 C   0  0  0  0  0  0  0  0  0  0  0  0
    3.8280   -0.3930    0.6870 C   0  0  1  0  0  0  0  0  0  0  0  0
    3.8610   -1.7110    1.3000 N   0  0  0  0  0  0  0  0  0  0  0  0
    5.0380   -0.0470   -0.1850 C   0  0  0  0  0  0  0  0  0  0  0  0
   -3.2540   -1.1130   -0.7870 C   0  0  0  0  0  0  0  0  0  0  0  0
   -3.5750   -2.4700   -0.7720 C   0  0  0  0  0  0  0  0  0  0  0  0
   -1.4820   -3.4870    1.7170 H   0  0  0  0  0  0  0  0  0  0  0  0
   -0.8960   -1.0970    1.6740 H   0  0  0  0  0  0  0  0  0  0  0  0
    0.5410    3.1190   -0.3900 H   0  0  0  0  0  0  0  0  0  0  0  0
   -1.5510    6.8910    0.5320 H   0  0  0  0  0  0  0  0  0  0  0  0
   -2.4790    5.7440    1.5060 H   0  0  0  0  0  0  0  0  0  0  0  0
   -2.8050    5.9280   -0.2630 H   0  0  0  0  0  0  0  0  0  0  0  0
   -3.5500    3.8220    0.6950 H   0  0  0  0  0  0  0  0  0  0  0  0
   -3.9920    1.4320    0.6280 H   0  0  0  0  0  0  0  0  0  0  0  0
   -0.5760   -0.3920   -2.3810 H   0  0  0  0  0  0  0  0  0  0  0  0
    1.2770   -1.9270   -2.9270 H   0  0  0  0  0  0  0  0  0  0  0  0
    3.3140   -1.9310   -1.5540 H   0  0  0  0  0  0  0  0  0  0  0  0
    1.6270    1.0920    1.0070 H   0  0  0  0  0  0  0  0  0  0  0  0
    3.7400    0.3570    1.4860 H   0  0  0  0  0  0  0  0  0  0  0  0
    4.1470   -2.4310    0.6660 H   0  0  0  0  0  0  0  0  0  0  0  0
    5.3380   -0.8790   -0.8300 H   0  0  0  0  0  0  0  0  0  0  0  0
    5.9040    0.2340    0.4050 H   0  0  0  0  0  0  0  0  0  0  0  0
    4.8260    0.8170   -0.8260 H   0  0  0  0  0  0  0  0  0  0  0  0
   -3.7480   -0.4620   -1.5050 H   0  0  0  0  0  0  0  0  0  0  0  0
   -4.3160   -2.8550   -1.4680 H   0  0  0  0  0  0  0  0  0  0  0  0
    2.9110   -2.0510    2.2550 C   0  0  0  0  0  0  0  0  0  0  0  0
    2.4500   -1.2310    3.0470 O   0  0  0  0  0  0  0  0  0  0  0  0
    2.3740   -3.4580    2.2260 C   0  0  0  0  0  0  0  0  0  0  0  0
    2.8750   -4.4370    1.3590 C   0  0  0  0  0  0  0  0  0  0  0  0
    2.2480   -5.6800    1.2340 C   0  0  0  0  0  0  0  0  0  0  0  0
    1.1080   -6.0000    1.9840 C   0  0  0  0  0  0  0  0  0  0  0  0
    0.4490   -7.3120    1.8160 C   0  0  0  0  0  0  0  0  0  0  0  0
    1.0300   -8.5230    2.2450 C   0  0  0  0  0  0  0  0  0  0  0  0
    0.3860   -9.7520    1.9850 C   0  0  0  0  0  0  0  0  0  0  0  0
   -0.8150   -9.8100    1.2950 C   0  0  0  0  0  0  0  0  0  0  0  0
   -1.3060  -11.0670    1.0870 O   0  0  0  0  0  0  0  0  0  0  0  0
   -2.6850  -11.1510    0.7500 C   0  0  0  0  0  0  0  0  0  0  0  0
   -1.3690   -8.6270    0.8300 C   0  0  0  0  0  0  0  0  0  0  0  0
   -0.7480   -7.3960    1.0950 C   0  0  0  0  0  0  0  0  0  0  0  0
    2.3860   -8.5650    2.7820 C   0  0  0  0  0  0  0  0  0  0  0  0
    2.7670   -7.9330    3.9720 C   0  0  0  0  0  0  0  0  0  0  0  0
    4.1040   -7.8980    4.3580 C   0  0  0  0  0  0  0  0  0  0  0  0
    5.0620   -8.5170    3.5640 C   0  0  0  0  0  0  0  0  0  0  0  0
    4.6850   -9.1750    2.3850 C   0  0  0  0  0  0  0  0  0  0  0  0
    3.3560   -9.1870    1.9970 C   0  0  0  0  0  0  0  0  0  0  0  0
    5.6860   -9.8310    1.4690 C   0  0  1  0  0  0  0  0  0  0  0  0
    6.5720   -8.7810    1.0000 N   0  0  0  0  0  0  0  0  0  0  0  0
    6.3490  -10.9400    2.2940 C   0  0  0  0  0  0  0  0  0  0  0  0
    0.6390   -5.0410    2.8940 C   0  0  0  0  0  0  0  0  0  0  0  0
    1.2630   -3.7850    3.0110 C   0  0  0  0  0  0  0  0  0  0  0  0
    3.7530   -4.2780    0.7550 H   0  0  0  0  0  0  0  0  0  0  0  0
    2.6650   -6.4090    0.5380 H   0  0  0  0  0  0  0  0  0  0  0  0
    0.8620  -10.6860    2.2850 H   0  0  0  0  0  0  0  0  0  0  0  0
   -2.9610  -12.2090    0.7320 H   0  0  0  0  0  0  0  0  0  0  0  0
   -2.8750  -10.7420   -0.2470 H   0  0  0  0  0  0  0  0  0  0  0  0
   -3.3030  -10.6550    1.5070 H   0  0  0  0  0  0  0  0  0  0  0  0
   -2.2670   -8.6290    0.2240 H   0  0  0  0  0  0  0  0  0  0  0  0
   -1.1830   -6.4890    0.6840 H   0  0  0  0  0  0  0  0  0  0  0  0
    2.0250   -7.4270    4.5830 H   0  0  0  0  0  0  0  0  0  0  0  0
    4.4020   -7.3710    5.2580 H   0  0  0  0  0  0  0  0  0  0  0  0
    6.1060   -8.4690    3.8610 H   0  0  0  0  0  0  0  0  0  0  0  0
    3.0770   -9.6390    1.0460 H   0  0  0  0  0  0  0  0  0  0  0  0
    5.1970  -10.2780    0.5990 H   0  0  0  0  0  0  0  0  0  0  0  0
    7.2530   -8.5170    1.6820 H   0  0  0  0  0  0  0  0  0  0  0  0
    7.0410  -10.5450    3.0410 H   0  0  0  0  0  0  0  0  0  0  0  0
    6.8960  -11.6410    1.6760 H   0  0  0  0  0  0  0  0  0  0  0  0
    5.5940  -11.5400    2.8190 H   0  0  0  0  0  0  0  0  0  0  0  0
   -0.2280   -5.2620    3.5150 H   0  0  0  0  0  0  0  0  0  0  0  0
    0.8540   -3.0520    3.7090 H   0  0  0  0  0  0  0  0  0  0  0  0
    6.1150   -7.8100    0.1150 C   0  0  0  0  0  0  0  0  0  0  0  0
    5.2510   -8.0320   -0.7390 O   0  0  0  0  0  0  0  0  0  0  0  0
    6.6120   -6.4050    0.3290 C   0  0  0  0  0  0  0  0  0  0  0  0
    7.5280   -6.0970    1.3430 C   0  0  0  0  0  0  0  0  0  0  0  0
    7.8480   -4.7730    1.6590 C   0  0  0  0  0  0  0  0  0  0  0  0
    7.2810   -3.7120    0.9640 C   0  0  0  0  0  0  0  0  0  0  0  0
    7.5970   -2.3330    1.3720 C   0  0  0  0  0  0  0  0  0  0  0  0
    8.8060   -1.6870    1.0360 C   0  0  0  0  0  0  0  0  0  0  0  0
    8.9940   -0.3380    1.4090 C   0  0  0  0  0  0  0  0  0  0  0  0
    8.0440    0.3550    2.1570 C   0  0  0  0  0  0  0  0  0  0  0  0
    8.3350    1.6640    2.4180 O   0  0  0  0  0  0  0  0  0  0  0  0
    7.2110    2.5160    2.6200 C   0  0  0  0  0  0  0  0  0  0  0  0
    6.9330   -0.3320    2.6260 C   0  0  0  0  0  0  0  0  0  0  0  0
    6.7250   -1.6630    2.2430 C   0  0  0  0  0  0  0  0  0  0  0  0
    9.9590   -2.4450    0.5350 C   0  0  0  0  0  0  0  0  0  0  0  0
    9.9910   -3.0840   -0.7080 C   0  0  0  0  0  0  0  0  0  0  0  0
   11.0630   -3.9140   -1.0430 C   0  0  0  0  0  0  0  0  0  0  0  0
   12.1170   -4.1010   -0.1450 C   0  0  0  0  0  0  0  0  0  0  0  0
   12.1130   -3.4630    1.1030 C   0  0  0  0  0  0  0  0  0  0  0  0
   11.0310   -2.6400    1.4210 C   0  0  0  0  0  0  0  0  0  0  0  0
   13.1640   -3.7140    2.1730 C   0  0  1  0  0  0  0  0  0  0  0  0
   13.1290   -5.1180    2.5510 N   0  0  0  0  0  0  0  0  0  0  0  0
   14.5450   -3.2920    1.6730 C   0  0  0  0  0  0  0  0  0  0  0  0
    6.4220   -4.0160   -0.1120 C   0  0  0  0  0  0  0  0  0  0  0  0
    6.0850   -5.3470   -0.4210 C   0  0  0  0  0  0  0  0  0  0  0  0
    8.0090   -6.8520    1.9410 H   0  0  0  0  0  0  0  0  0  0  0  0
    8.5440   -4.5840    2.4750 H   0  0  0  0  0  0  0  0  0  0  0  0
    9.9210    0.1680    1.1450 H   0  0  0  0  0  0  0  0  0  0  0  0
    7.5820    3.5420    2.7020 H   0  0  0  0  0  0  0  0  0  0  0  0
    6.6910    2.2800    3.5530 H   0  0  0  0  0  0  0  0  0  0  0  0
    6.5250    2.4760    1.7660 H   0  0  0  0  0  0  0  0  0  0  0  0
    6.1920    0.1380    3.2650 H   0  0  0  0  0  0  0  0  0  0  0  0
    5.8570   -2.1840    2.6400 H   0  0  0  0  0  0  0  0  0  0  0  0
    9.1600   -2.9790   -1.4010 H   0  0  0  0  0  0  0  0  0  0  0  0
   11.0580   -4.4410   -1.9930 H   0  0  0  0  0  0  0  0  0  0  0  0
   12.9220   -4.7780   -0.4180 H   0  0  0  0  0  0  0  0  0  0  0  0
   10.9810   -2.1920    2.4160 H   0  0  0  0  0  0  0  0  0  0  0  0
   12.9330   -3.1270    3.0710 H   0  0  0  0  0  0  0  0  0  0  0  0
   13.6470   -5.7180    1.9360 H   0  0  0  0  0  0  0  0  0  0  0  0
   14.8660   -3.8830    0.8070 H   0  0  0  0  0  0  0  0  0  0  0  0
   15.3000   -3.4210    2.4550 H   0  0  0  0  0  0  0  0  0  0  0  0
   14.5430   -2.2380    1.3700 H   0  0  0  0  0  0  0  0  0  0  0  0
    5.9920   -3.2130   -0.7070 H   0  0  0  0  0  0  0  0  0  0  0  0
    5.3740   -5.5520   -1.2260 H   0  0  0  0  0  0  0  0  0  0  0  0
   11.9930   -5.6180    3.1820 C   0  0  0  0  0  0  0  0  0  0  0  0
   11.3580   -4.9810    4.0170 O   0  0  0  0  0  0  0  0  0  0  0  0
   11.4890   -6.9550    2.7200 C   0  0  0  0  0  0  0  0  0  0  0  0
   12.0400   -7.5950    1.6120 C   0  0  0  0  0  0  0  0  0  0  0  0
   11.5090   -8.7780    1.1000 C   0  0  0  0  0  0  0  0  0  0  0  0
   10.3850   -9.3600    1.6730 C   0  0  0  0  0  0  0  0  0  0  0  0
    9.8390  -10.5920    1.0790 C   0  0  0  0  0  0  0  0  0  0  0  0
   10.3620  -11.8750    1.3490 C   0  0  0  0  0  0  0  0  0  0  0  0
    9.7180  -13.0080    0.8010 C   0  0  0  0  0  0  0  0  0  0  0  0
    8.6180  -12.8890   -0.0490 C   0  0  0  0  0  0  0  0  0  0  0  0
    8.0570  -14.0630   -0.4670 O   0  0  0  0  0  0  0  0  0  0  0  0
    6.6690  -14.0020   -0.7890 C   0  0  0  0  0  0  0  0  0  0  0  0
    8.2200  -11.6220   -0.4520 C   0  0  0  0  0  0  0  0  0  0  0  0
    8.8400  -10.4930    0.0970 C   0  0  0  0  0  0  0  0  0  0  0  0
   11.6850  -12.0410    1.9710 C   0  0  0  0  0  0  0  0  0  0  0  0
   11.9820  -11.6720    3.2860 C   0  0  0  0  0  0  0  0  0  0  0  0
   13.3020  -11.7010    3.7450 C   0  0  0  0  0  0  0  0  0  0  0  0
   14.3400  -12.1060    2.9010 C   0  0  0  0  0  0  0  0  0  0  0  0
   14.0680  -12.4990    1.5860 C   0  0  0  0  0  0  0  0  0  0  0  0
   12.7400  -12.4650    1.1450 C   0  0  0  0  0  0  0  0  0  0  0  0
   15.1470  -12.8770    0.5880 C   0  0  1  0  0  0  0  0  0  0  0  0
   15.9720  -11.7310    0.2520 N   0  0  0  0  0  0  0  0  0  0  0  0
   15.9640  -14.0730    1.0700 C   0  0  0  0  0  0  0  0  0  0  0  0
    9.8240   -8.7310    2.8000 C   0  0  0  0  0  0  0  0  0  0  0  0
   10.3660   -7.5360    3.3160 C   0  0  0  0  0  0  0  0  0  0  0  0
   12.8750   -7.1730    1.0850 H   0  0  0  0  0  0  0  0  0  0  0  0
   11.9780   -9.2520    0.2390 H   0  0  0  0  0  0  0  0  0  0  0  0
   10.1070  -14.0020    1.0150 H   0  0  0  0  0  0  0  0  0  0  0  0
    6.3320  -15.0220   -1.0000 H   0  0  0  0  0  0  0  0  0  0  0  0
    6.4900  -13.4060   -1.6880 H   0  0  0  0  0  0  0  0  0  0  0  0
    6.0810  -13.6260    0.0560 H   0  0  0  0  0  0  0  0  0  0  0  0
    7.4120  -11.4680   -1.1600 H   0  0  0  0  0  0  0  0  0  0  0  0
    8.5250   -9.5130   -0.2520 H   0  0  0  0  0  0  0  0  0  0  0  0
   11.1960  -11.3140    3.9450 H   0  0  0  0  0  0  0  0  0  0  0  0
   13.5250  -11.3750    4.7580 H   0  0  0  0  0  0  0  0  0  0  0  0
   15.3610  -12.0890    3.2720 H   0  0  0  0  0  0  0  0  0  0  0  0
   12.5230  -12.7060    0.1020 H   0  0  0  0  0  0  0  0  0  0  0  0
   14.6650  -13.1910   -0.3480 H   0  0  0  0  0  0  0  0  0  0  0  0
   16.7920  -11.5100    0.7970 H   0  0  0  0  0  0  0  0  0  0  0  0
   16.5110  -13.8570    1.9930 H   0  0  0  0  0  0  0  0  0  0  0  0
   16.6940  -14.3740    0.3120 H   0  0  0  0  0  0  0  0  0  0  0  0
   15.3080  -14.9310    1.2630 H   0  0  0  0  0  0  0  0  0  0  0  0
    8.9480   -9.1570    3.2850 H   0  0  0  0  0  0  0  0  0  0  0  0
    9.8870   -7.0430    4.1620 H   0  0  0  0  0  0  0  0  0  0  0  0
   -3.9580   -6.5280    1.5520 C   0  0  0  0  0  0  0  0  0  0  0  0
   -3.3740   -5.2300    1.4080 O   0  0  0  0  0  0  0  0  0  0  0  0
   -5.0120   -6.4220    1.8140 H   0  0  0  0  0  0  0  0  0  0  0  0
   -3.4440   -7.0480    2.3650 H   0  0  0  0  0  0  0  0  0  0  0  0
   -3.8700   -7.1340    0.6450 H   0  0  0  0  0  0  0  0  0  0  0  0
   17.1790   -7.5240   -1.1970 C   0  0  0  0  0  0  0  0  0  0  0  0
   15.9370   -8.4230   -1.1690 C   0  0  0  0  0  0  0  0  0  0  0  0
   14.9010   -7.7580   -0.2730 C   0  0  0  0  0  0  0  0  0  0  0  0
   15.4030   -8.5690   -2.6000 C   0  0  0  0  0  0  0  0  0  0  0  0
   16.3480   -9.6840   -0.5690 O   0  0  0  0  0  0  0  0  0  0  0  0
   15.4660  -10.7150   -0.5110 C   0  0  0  0  0  0  0  0  0  0  0  0
   14.3610  -10.7300   -1.0330 O   0  0  0  0  0  0  0  0  0  0  0  0
   16.9430   -6.5310   -1.5960 H   0  0  0  0  0  0  0  0  0  0  0  0
   17.5950   -7.3970   -0.1910 H   0  0  0  0  0  0  0  0  0  0  0  0
   17.9660   -7.9670   -1.8150 H   0  0  0  0  0  0  0  0  0  0  0  0
   15.2420   -7.7120    0.7680 H   0  0  0  0  0  0  0  0  0  0  0  0
   13.9840   -8.3460   -0.2850 H   0  0  0  0  0  0  0  0  0  0  0  0
   14.6530   -6.7440   -0.6060 H   0  0  0  0  0  0  0  0  0  0  0  0
   16.0850   -9.1660   -3.2130 H   0  0  0  0  0  0  0  0  0  0  0  0
   14.4260   -9.0630   -2.6330 H   0  0  0  0  0  0  0  0  0  0  0  0
   15.2630   -7.5900   -3.0720 H   0  0  0  0  0  0  0  0  0  0  0  0
  1  3  1  0  0  0  0
  1178  1  0  0  0  0
  2  1  2  0  0  0  0
  3  4  1  0  0  0  0
  4 26  1  0  0  0  0
  5  4  2  0  0  0  0
  5 27  1  0  0  0  0
  6  5  1  0  0  0  0
  7  6  1  0  0  0  0
  7 14  1  0  0  0  0
  8  9  1  0  0  0  0
  8  7  2  0  0  0  0
  9 10  2  0  0  0  0
 10 11  1  0  0  0  0
 10 13  1  0  0  0  0
 11 12  1  0  0  0  0
 12 29  1  0  0  0  0
 12 30  1  0  0  0  0
 13 32  1  0  0  0  0
 14 13  2  0  0  0  0
 14 33  1  0  0  0  0
 15  8  1  0  0  0  0
 15 20  1  0  0  0  0
 16 15  2  0  0  0  0
 17 16  1  0  0  0  0
 17 18  2  0  0  0  0
 18 19  1  0  0  0  0
 19 20  2  0  0  0  0
 19 21  1  0  0  0  0
 20 37  1  0  0  0  0
 21 22  1  0  0  0  0
 21 38  1  1  0  0  0
 22 45  1  0  0  0  0
 23 41  1  0  0  0  0
 23 21  1  0  0  0  0
 24 25  1  0  0  0  0
 24  6  2  0  0  0  0
 25  3  2  0  0  0  0
 28  9  1  0  0  0  0
 31 12  1  0  0  0  0
 34 16  1  0  0  0  0
 35 17  1  0  0  0  0
 36 18  1  0  0  0  0
 39 22  1  0  0  0  0
 40 23  1  0  0  0  0
 42 23  1  0  0  0  0
 43 24  1  0  0  0  0
 44 25  1  0  0  0  0
 45 46  2  0  0  0  0
 47 45  1  0  0  0  0
 47 69  1  0  0  0  0
 48 47  2  0  0  0  0
 49 48  1  0  0  0  0
 49 50  2  0  0  0  0
 50 68  1  0  0  0  0
 51 50  1  0  0  0  0
 51 52  1  0  0  0  0
 52 59  1  0  0  0  0
 53 52  2  0  0  0  0
 53 72  1  0  0  0  0
 54 53  1  0  0  0  0
 55 54  1  0  0  0  0
 56 55  1  0  0  0  0
 56 75  1  0  0  0  0
 57 58  1  0  0  0  0
 57 54  2  0  0  0  0
 58 51  2  0  0  0  0
 59 60  1  0  0  0  0
 60 61  2  0  0  0  0
 60 78  1  0  0  0  0
 61 79  1  0  0  0  0
 62 80  1  0  0  0  0
 62 61  1  0  0  0  0
 63 62  2  0  0  0  0
 64 63  1  0  0  0  0
 64 59  2  0  0  0  0
 65 82  1  6  0  0  0
 65 67  1  0  0  0  0
 65 63  1  0  0  0  0
 66 65  1  0  0  0  0
 66 83  1  0  0  0  0
 67 86  1  0  0  0  0
 67 84  1  0  0  0  0
 68 69  2  0  0  0  0
 68 87  1  0  0  0  0
 69 88  1  0  0  0  0
 70 48  1  0  0  0  0
 71 49  1  0  0  0  0
 73 56  1  0  0  0  0
 74 56  1  0  0  0  0
 76 57  1  0  0  0  0
 77 58  1  0  0  0  0
 81 64  1  0  0  0  0
 85 67  1  0  0  0  0
 89 91  1  0  0  0  0
 89 66  1  0  0  0  0
 90 89  2  0  0  0  0
 91 92  1  0  0  0  0
 92 93  2  0  0  0  0
 92114  1  0  0  0  0
 93115  1  0  0  0  0
 94 95  1  0  0  0  0
 94 93  1  0  0  0  0
 95102  1  0  0  0  0
 96 95  2  0  0  0  0
 96 97  1  0  0  0  0
 97 98  2  0  0  0  0
 98 99  1  0  0  0  0
 98101  1  0  0  0  0
 99100  1  0  0  0  0
100117  1  0  0  0  0
100118  1  0  0  0  0
101120  1  0  0  0  0
102101  2  0  0  0  0
102121  1  0  0  0  0
103 96  1  0  0  0  0
103108  1  0  0  0  0
104103  2  0  0  0  0
105104  1  0  0  0  0
105106  2  0  0  0  0
106107  1  0  0  0  0
107108  2  0  0  0  0
107109  1  0  0  0  0
108125  1  0  0  0  0
109110  1  0  0  0  0
109126  1  1  0  0  0
110133  1  0  0  0  0
111109  1  0  0  0  0
111129  1  0  0  0  0
112 94  2  0  0  0  0
113112  1  0  0  0  0
113 91  2  0  0  0  0
116 97  1  0  0  0  0
119100  1  0  0  0  0
122104  1  0  0  0  0
123105  1  0  0  0  0
124106  1  0  0  0  0
127110  1  0  0  0  0
128111  1  0  0  0  0
130111  1  0  0  0  0
131112  1  0  0  0  0
132113  1  0  0  0  0
133134  2  0  0  0  0
135133  1  0  0  0  0
135157  1  0  0  0  0
136135  2  0  0  0  0
137136  1  0  0  0  0
137138  2  0  0  0  0
138156  1  0  0  0  0
139140  1  0  0  0  0
139138  1  0  0  0  0
140147  1  0  0  0  0
141160  1  0  0  0  0
141140  2  0  0  0  0
142141  1  0  0  0  0
143142  1  0  0  0  0
144143  1  0  0  0  0
144163  1  0  0  0  0
145142  2  0  0  0  0
145146  1  0  0  0  0
146139  2  0  0  0  0
147148  1  0  0  0  0
148149  2  0  0  0  0
148166  1  0  0  0  0
149167  1  0  0  0  0
150168  1  0  0  0  0
150149  1  0  0  0  0
151150  2  0  0  0  0
152151  1  0  0  0  0
152147  2  0  0  0  0
153170  1  6  0  0  0
153155  1  0  0  0  0
153151  1  0  0  0  0
154153  1  0  0  0  0
154171  1  0  0  0  0
155174  1  0  0  0  0
155172  1  0  0  0  0
156175  1  0  0  0  0
156157  2  0  0  0  0
157176  1  0  0  0  0
158136  1  0  0  0  0
159137  1  0  0  0  0
161144  1  0  0  0  0
162144  1  0  0  0  0
164145  1  0  0  0  0
165146  1  0  0  0  0
169152  1  0  0  0  0
173155  1  0  0  0  0
177179  1  0  0  0  0
177180  1  0  0  0  0
178177  1  0  0  0  0
181177  1  0  0  0  0
182183  1  0  0  0  0
182190  1  0  0  0  0
183186  1  0  0  0  0
183184  1  0  0  0  0
184192  1  0  0  0  0
185183  1  0  0  0  0
186187  1  0  0  0  0
187154  1  0  0  0  0
188187  2  0  0  0  0
189182  1  0  0  0  0
191182  1  0  0  0  0
193184  1  0  0  0  0
194184  1  0  0  0  0
195185  1  0  0  0  0
196185  1  0  0  0  0
197185  1  0  0  0  0
M  END
