mop_tetramer.pdb
  -OEChem-10052414443D

197208  0     1  0  0  0  0  0999 V2000
   -3.4400   -4.7280    0.0370 C   0  0  0  0  0  0  0  0  0  0  0  0
   -3.8740   -5.2830   -0.9590 O   0  0  0  0  0  0  0  0  0  0  0  0
   -2.9840   -3.3200    0.0520 C   0  0  0  0  0  0  0  0  0  0  0  0
   -2.0130   -2.8490    0.9390 C   0  0  0  0  0  0  0  0  0  0  0  0
   -1.6750   -1.4890    0.9440 C   0  0  0  0  0  0  0  0  0  0  0  0
   -2.3060   -0.5850    0.0660 C   0  0  0  0  0  0  0  0  0  0  0  0
   -1.9820    0.8560    0.0630 C   0  0  0  0  0  0  0  0  0  0  0  0
   -0.7070    1.3520   -0.2770 C   0  0  0  0  0  0  0  0  0  0  0  0
   -0.4570    2.7370   -0.1930 C   0  0  0  0  0  0  0  0  0  0  0  0
   -1.4480    3.6400    0.1780 C   0  0  0  0  0  0  0  0  0  0  0  0
   -1.0340    4.9400    0.2240 O   0  0  0  0  0  0  0  0  0  0  0  0
   -2.0230    5.9150    0.5130 C   0  0  0  0  0  0  0  0  0  0  0  0
   -2.7190    3.1590    0.4650 C   0  0  0  0  0  0  0  0  0  0  0  0
   -2.9800    1.7840    0.4140 C   0  0  0  0  0  0  0  0  0  0  0  0
    0.3990    0.4810   -0.6780 C   0  0  0  0  0  0  0  0  0  0  0  0
    0.3290   -0.3610   -1.8010 C   0  0  0  0  0  0  0  0  0  0  0  0
    1.3830   -1.2100   -2.1250 C   0  0  0  0  0  0  0  0  0  0  0  0
    2.5290   -1.2070   -1.3440 C   0  0  0  0  0  0  0  0  0  0  0  0
    2.6210   -0.3550   -0.2290 C   0  0  0  0  0  0  0  0  0  0  0  0
    1.5530    0.4710    0.1000 C   0  0  0  0  0  0  0  0  0  0  0  0
    3.8200   -0.3770    0.6840 C   0  0  1  0  0  0  0  0  0  0  0  0
    3.8480   -1.6980    1.2940 N   0  0  0  0  0  0  0  0  0  0  0  0
    5.0450   -0.0250   -0.1660 C   0  0  0  0  0  0  0  0  0  0  0  0
   -3.2560   -1.0870   -0.8360 C   0  0  0  0  0  0  0  0  0  0  0  0
   -3.5870   -2.4410   -0.8510 C   0  0  0  0  0  0  0  0  0  0  0  0
   -1.5130   -3.5250    1.6260 H   0  0  0  0  0  0  0  0  0  0  0  0
   -0.9100   -1.1380    1.6360 H   0  0  0  0  0  0  0  0  0  0  0  0
    0.5370    3.1200   -0.4210 H   0  0  0  0  0  0  0  0  0  0  0  0
   -1.5340    6.8940    0.5120 H   0  0  0  0  0  0  0  0  0  0  0  0
   -2.4550    5.7590    1.5060 H   0  0  0  0  0  0  0  0  0  0  0  0
   -2.7970    5.9250   -0.2610 H   0  0  0  0  0  0  0  0  0  0  0  0
   -3.5300    3.8220    0.7460 H   0  0  0  0  0  0  0  0  0  0  0  0
   -3.9780    1.4310    0.6680 H   0  0  0  0  0  0  0  0  0  0  0  0
   -0.5670   -0.3750   -2.4180 H   0  0  0  0  0  0  0  0  0  0  0  0
    1.3050   -1.8840   -2.9730 H   0  0  0  0  0  0  0  0  0  0  0  0
    3.3400   -1.8840   -1.5940 H   0  0  0  0  0  0  0  0  0  0  0  0
    1.6050    1.0870    0.9980 H   0  0  0  0  0  0  0  0  0  0  0  0
    3.7210    0.3710    1.4810 H   0  0  0  0  0  0  0  0  0  0  0  0
    4.1400   -2.4190    0.6590 H   0  0  0  0  0  0  0  0  0  0  0  0
    5.3880   -0.8690   -0.7730 H   0  0  0  0  0  0  0  0  0  0  0  0
    5.8810    0.3030    0.4440 H   0  0  0  0  0  0  0  0  0  0  0  0
    4.8310    0.8120   -0.8410 H   0  0  0  0  0  0  0  0  0  0  0  0
   -3.7420   -0.4170   -1.5420 H   0  0  0  0  0  0  0  0  0  0  0  0
   -4.3290   -2.8050   -1.5570 H   0  0  0  0  0  0  0  0  0  0  0  0
    2.8980   -2.0350    2.2490 C   0  0  0  0  0  0  0  0  0  0  0  0
    2.4350   -1.2090    3.0420 O   0  0  0  0  0  0  0  0  0  0  0  0
    2.3600   -3.4430    2.2240 C   0  0  0  0  0  0  0  0  0  0  0  0
    2.8580   -4.4250    1.3630 C   0  0  0  0  0  0  0  0  0  0  0  0
    2.2350   -5.6740    1.2520 C   0  0  0  0  0  0  0  0  0  0  0  0
    1.1030   -5.9920    2.0140 C   0  0  0  0  0  0  0  0  0  0  0  0
    0.4450   -7.3080    1.8610 C   0  0  0  0  0  0  0  0  0  0  0  0
    1.0410   -8.5180    2.2700 C   0  0  0  0  0  0  0  0  0  0  0  0
    0.3970   -9.7490    2.0110 C   0  0  0  0  0  0  0  0  0  0  0  0
   -0.8180   -9.8090    1.3460 C   0  0  0  0  0  0  0  0  0  0  0  0
   -1.3040  -11.0680    1.1350 O   0  0  0  0  0  0  0  0  0  0  0  0
   -2.6730  -11.1600    0.7650 C   0  0  0  0  0  0  0  0  0  0  0  0
   -1.3920   -8.6240    0.9130 C   0  0  0  0  0  0  0  0  0  0  0  0
   -0.7720   -7.3920    1.1730 C   0  0  0  0  0  0  0  0  0  0  0  0
    2.3990   -8.5600    2.8040 C   0  0  0  0  0  0  0  0  0  0  0  0
    2.7790   -7.9220    3.9910 C   0  0  0  0  0  0  0  0  0  0  0  0
    4.1180   -7.8950    4.3790 C   0  0  0  0  0  0  0  0  0  0  0  0
    5.0730   -8.5240    3.5950 C   0  0  0  0  0  0  0  0  0  0  0  0
    4.6960   -9.1880    2.4170 C   0  0  0  0  0  0  0  0  0  0  0  0
    3.3650   -9.1930    2.0300 C   0  0  0  0  0  0  0  0  0  0  0  0
    5.6930   -9.8450    1.5010 C   0  0  1  0  0  0  0  0  0  0  0  0
    6.5760   -8.7980    1.0210 N   0  0  0  0  0  0  0  0  0  0  0  0
    6.3670  -10.9500    2.3180 C   0  0  0  0  0  0  0  0  0  0  0  0
    0.6320   -5.0260    2.9160 C   0  0  0  0  0  0  0  0  0  0  0  0
    1.2520   -3.7660    3.0190 C   0  0  0  0  0  0  0  0  0  0  0  0
    3.7260   -4.2640    0.7420 H   0  0  0  0  0  0  0  0  0  0  0  0
    2.6480   -6.4040    0.5570 H   0  0  0  0  0  0  0  0  0  0  0  0
    0.8830  -10.6830    2.2950 H   0  0  0  0  0  0  0  0  0  0  0  0
   -2.9390  -12.2200    0.7290 H   0  0  0  0  0  0  0  0  0  0  0  0
   -2.8440  -10.7420   -0.2320 H   0  0  0  0  0  0  0  0  0  0  0  0
   -3.3130  -10.6780    1.5120 H   0  0  0  0  0  0  0  0  0  0  0  0
   -2.3080   -8.6260    0.3350 H   0  0  0  0  0  0  0  0  0  0  0  0
   -1.2220   -6.4830    0.7860 H   0  0  0  0  0  0  0  0  0  0  0  0
    2.0400   -7.4070    4.5970 H   0  0  0  0  0  0  0  0  0  0  0  0
    4.4150   -7.3630    5.2780 H   0  0  0  0  0  0  0  0  0  0  0  0
    6.1170   -8.4780    3.8930 H   0  0  0  0  0  0  0  0  0  0  0  0
    3.0860   -9.6530    1.0800 H   0  0  0  0  0  0  0  0  0  0  0  0
    5.2020  -10.2970    0.6310 H   0  0  0  0  0  0  0  0  0  0  0  0
    7.2650   -8.5280    1.6990 H   0  0  0  0  0  0  0  0  0  0  0  0
    7.0600  -10.5520    3.0660 H   0  0  0  0  0  0  0  0  0  0  0  0
    6.9190  -11.6440    1.6960 H   0  0  0  0  0  0  0  0  0  0  0  0
    5.6200  -11.5570    2.8450 H   0  0  0  0  0  0  0  0  0  0  0  0
   -0.2320   -5.2440    3.5410 H   0  0  0  0  0  0  0  0  0  0  0  0
    0.8420   -3.0290    3.7080 H   0  0  0  0  0  0  0  0  0  0  0  0
    6.1110   -7.8270    0.1370 C   0  0  0  0  0  0  0  0  0  0  0  0
    5.2620   -8.0580   -0.7180 O   0  0  0  0  0  0  0  0  0  0  0  0
    6.6190   -6.4240    0.3410 C   0  0  0  0  0  0  0  0  0  0  0  0
    7.5280   -6.1120    1.3550 C   0  0  0  0  0  0  0  0  0  0  0  0
    7.8440   -4.7860    1.6680 C   0  0  0  0  0  0  0  0  0  0  0  0
    7.2780   -3.7240    0.9630 C   0  0  0  0  0  0  0  0  0  0  0  0
    7.5900   -2.3450    1.3710 C   0  0  0  0  0  0  0  0  0  0  0  0
    8.7980   -1.6920    1.0400 C   0  0  0  0  0  0  0  0  0  0  0  0
    8.9810   -0.3450    1.4240 C   0  0  0  0  0  0  0  0  0  0  0  0
    8.0320    0.3380    2.1820 C   0  0  0  0  0  0  0  0  0  0  0  0
    8.3220    1.6430    2.4630 O   0  0  0  0  0  0  0  0  0  0  0  0
    7.1940    2.4960    2.6390 C   0  0  0  0  0  0  0  0  0  0  0  0
    6.9220   -0.3550    2.6440 C   0  0  0  0  0  0  0  0  0  0  0  0
    6.7150   -1.6820    2.2450 C   0  0  0  0  0  0  0  0  0  0  0  0
    9.9570   -2.4410    0.5350 C   0  0  0  0  0  0  0  0  0  0  0  0
    9.9930   -3.0760   -0.7090 C   0  0  0  0  0  0  0  0  0  0  0  0
   11.0730   -3.8950   -1.0480 C   0  0  0  0  0  0  0  0  0  0  0  0
   12.1300   -4.0780   -0.1520 C   0  0  0  0  0  0  0  0  0  0  0  0
   12.1200   -3.4450    1.0990 C   0  0  0  0  0  0  0  0  0  0  0  0
   11.0330   -2.6300    1.4200 C   0  0  0  0  0  0  0  0  0  0  0  0
   13.1680   -3.7010    2.1710 C   0  0  1  0  0  0  0  0  0  0  0  0
   13.1230   -5.1050    2.5540 N   0  0  0  0  0  0  0  0  0  0  0  0
   14.5550   -3.2930    1.6760 C   0  0  0  0  0  0  0  0  0  0  0  0
    6.4190   -4.0340   -0.1120 C   0  0  0  0  0  0  0  0  0  0  0  0
    6.0880   -5.3730   -0.4100 C   0  0  0  0  0  0  0  0  0  0  0  0
    8.0110   -6.8570    1.9580 H   0  0  0  0  0  0  0  0  0  0  0  0
    8.5410   -4.5870    2.4770 H   0  0  0  0  0  0  0  0  0  0  0  0
    9.9060    0.1670    1.1630 H   0  0  0  0  0  0  0  0  0  0  0  0
    7.5640    3.5220    2.7300 H   0  0  0  0  0  0  0  0  0  0  0  0
    6.6510    2.2600    3.5590 H   0  0  0  0  0  0  0  0  0  0  0  0
    6.5290    2.4580    1.7690 H   0  0  0  0  0  0  0  0  0  0  0  0
    6.1830    0.1060    3.2920 H   0  0  0  0  0  0  0  0  0  0  0  0
    5.8480   -2.2080    2.6360 H   0  0  0  0  0  0  0  0  0  0  0  0
    9.1610   -2.9760   -1.4010 H   0  0  0  0  0  0  0  0  0  0  0  0
   11.0710   -4.4200   -2.0000 H   0  0  0  0  0  0  0  0  0  0  0  0
   12.9390   -4.7490   -0.4270 H   0  0  0  0  0  0  0  0  0  0  0  0
   10.9800   -2.1860    2.4150 H   0  0  0  0  0  0  0  0  0  0  0  0
   12.9390   -3.1100    3.0670 H   0  0  0  0  0  0  0  0  0  0  0  0
   13.6550   -5.7110    1.9560 H   0  0  0  0  0  0  0  0  0  0  0  0
   14.8790   -3.8950    0.8200 H   0  0  0  0  0  0  0  0  0  0  0  0
   15.3030   -3.4190    2.4650 H   0  0  0  0  0  0  0  0  0  0  0  0
   14.5630   -2.2420    1.3630 H   0  0  0  0  0  0  0  0  0  0  0  0
    5.9870   -3.2370   -0.7070 H   0  0  0  0  0  0  0  0  0  0  0  0
    5.3800   -5.5790   -1.2160 H   0  0  0  0  0  0  0  0  0  0  0  0
   11.9790   -5.6000    3.1710 C   0  0  0  0  0  0  0  0  0  0  0  0
   11.3290   -4.9580    3.9900 O   0  0  0  0  0  0  0  0  0  0  0  0
   11.4880   -6.9430    2.7140 C   0  0  0  0  0  0  0  0  0  0  0  0
   12.0350   -7.5740    1.5980 C   0  0  0  0  0  0  0  0  0  0  0  0
   11.5130   -8.7650    1.0940 C   0  0  0  0  0  0  0  0  0  0  0  0
   10.4020   -9.3590    1.6800 C   0  0  0  0  0  0  0  0  0  0  0  0
    9.8550  -10.5920    1.0880 C   0  0  0  0  0  0  0  0  0  0  0  0
   10.3720  -11.8760    1.3670 C   0  0  0  0  0  0  0  0  0  0  0  0
    9.7250  -13.0080    0.8230 C   0  0  0  0  0  0  0  0  0  0  0  0
    8.6330  -12.8880   -0.0360 C   0  0  0  0  0  0  0  0  0  0  0  0
    8.0700  -14.0610   -0.4550 O   0  0  0  0  0  0  0  0  0  0  0  0
    6.6830  -13.9970   -0.7760 C   0  0  0  0  0  0  0  0  0  0  0  0
    8.2420  -11.6210   -0.4490 C   0  0  0  0  0  0  0  0  0  0  0  0
    8.8610  -10.4920    0.1010 C   0  0  0  0  0  0  0  0  0  0  0  0
   11.6950  -12.0450    1.9880 C   0  0  0  0  0  0  0  0  0  0  0  0
   11.9950  -11.6850    3.3040 C   0  0  0  0  0  0  0  0  0  0  0  0
   13.3150  -11.7280    3.7630 C   0  0  0  0  0  0  0  0  0  0  0  0
   14.3510  -12.1350    2.9150 C   0  0  0  0  0  0  0  0  0  0  0  0
   14.0760  -12.5160    1.5980 C   0  0  0  0  0  0  0  0  0  0  0  0
   12.7470  -12.4700    1.1590 C   0  0  0  0  0  0  0  0  0  0  0  0
   15.1500  -12.8910    0.5940 C   0  0  1  0  0  0  0  0  0  0  0  0
   15.9690  -11.7420    0.2520 N   0  0  0  0  0  0  0  0  0  0  0  0
   15.9800  -14.0800    1.0690 C   0  0  0  0  0  0  0  0  0  0  0  0
    9.8440   -8.7360    2.8130 C   0  0  0  0  0  0  0  0  0  0  0  0
   10.3780   -7.5360    3.3230 C   0  0  0  0  0  0  0  0  0  0  0  0
   12.8540   -7.1370    1.0560 H   0  0  0  0  0  0  0  0  0  0  0  0
   11.9760   -9.2330    0.2270 H   0  0  0  0  0  0  0  0  0  0  0  0
   10.1060  -14.0030    1.0460 H   0  0  0  0  0  0  0  0  0  0  0  0
    6.3400  -15.0170   -0.9740 H   0  0  0  0  0  0  0  0  0  0  0  0
    6.5070  -13.4100   -1.6830 H   0  0  0  0  0  0  0  0  0  0  0  0
    6.0970  -13.6060    0.0640 H   0  0  0  0  0  0  0  0  0  0  0  0
    7.4430  -11.4690   -1.1660 H   0  0  0  0  0  0  0  0  0  0  0  0
    8.5490   -9.5120   -0.2510 H   0  0  0  0  0  0  0  0  0  0  0  0
   11.2110  -11.3260    3.9670 H   0  0  0  0  0  0  0  0  0  0  0  0
   13.5410  -11.4120    4.7780 H   0  0  0  0  0  0  0  0  0  0  0  0
   15.3720  -12.1270    3.2860 H   0  0  0  0  0  0  0  0  0  0  0  0
   12.5270  -12.7050    0.1150 H   0  0  0  0  0  0  0  0  0  0  0  0
   14.6640  -13.2080   -0.3390 H   0  0  0  0  0  0  0  0  0  0  0  0
   16.7950  -11.5210    0.7880 H   0  0  0  0  0  0  0  0  0  0  0  0
   16.5410  -13.8570    1.9820 H   0  0  0  0  0  0  0  0  0  0  0  0
   16.7020  -14.3790    0.3020 H   0  0  0  0  0  0  0  0  0  0  0  0
   15.3330  -14.9420    1.2740 H   0  0  0  0  0  0  0  0  0  0  0  0
    8.9770   -9.1710    3.3040 H   0  0  0  0  0  0  0  0  0  0  0  0
    9.9020   -7.0490    4.1730 H   0  0  0  0  0  0  0  0  0  0  0  0
   -4.0420   -6.5100    1.4350 C   0  0  0  0  0  0  0  0  0  0  0  0
   -3.4180   -5.2310    1.2950 O   0  0  0  0  0  0  0  0  0  0  0  0
   -5.1000   -6.3720    1.6660 H   0  0  0  0  0  0  0  0  0  0  0  0
   -3.5670   -7.0340    2.2680 H   0  0  0  0  0  0  0  0  0  0  0  0
   -3.9410   -7.1260    0.5360 H   0  0  0  0  0  0  0  0  0  0  0  0
   17.1870   -7.5490   -1.2150 C   0  0  0  0  0  0  0  0  0  0  0  0
   15.9390   -8.4390   -1.1790 C   0  0  0  0  0  0  0  0  0  0  0  0
   14.9100   -7.7650   -0.2810 C   0  0  0  0  0  0  0  0  0  0  0  0
   15.4000   -8.5860   -2.6090 C   0  0  0  0  0  0  0  0  0  0  0  0
   16.3460   -9.7000   -0.5780 O   0  0  0  0  0  0  0  0  0  0  0  0
   15.4600  -10.7280   -0.5130 C   0  0  0  0  0  0  0  0  0  0  0  0
   14.3530  -10.7420   -1.0290 O   0  0  0  0  0  0  0  0  0  0  0  0
   16.9580   -6.5580   -1.6230 H   0  0  0  0  0  0  0  0  0  0  0  0
   17.6030   -7.4160   -0.2100 H   0  0  0  0  0  0  0  0  0  0  0  0
   17.9710   -8.0040   -1.8280 H   0  0  0  0  0  0  0  0  0  0  0  0
   15.2650   -7.6980    0.7550 H   0  0  0  0  0  0  0  0  0  0  0  0
   13.9990   -8.3610   -0.2660 H   0  0  0  0  0  0  0  0  0  0  0  0
   14.6500   -6.7600   -0.6290 H   0  0  0  0  0  0  0  0  0  0  0  0
   16.0840   -9.1760   -3.2260 H   0  0  0  0  0  0  0  0  0  0  0  0
   14.4270   -9.0870   -2.6390 H   0  0  0  0  0  0  0  0  0  0  0  0
   15.2510   -7.6070   -3.0770 H   0  0  0  0  0  0  0  0  0  0  0  0
  1  3  1  0  0  0  0
  1178  1  0  0  0  0
  1  2  2  0  0  0  0
  3  4  2  0  0  0  0
  4  5  1  0  0  0  0
  4 26  1  0  0  0  0
  5 27  1  0  0  0  0
  5  6  2  0  0  0  0
  6  7  1  0  0  0  0
  7 14  2  0  0  0  0
  8  9  2  0  0  0  0
  7  8  1  0  0  0  0
  9 10  1  0  0  0  0
 10 11  1  0  0  0  0
 10 13  2  0  0  0  0
 11 12  1  0  0  0  0
 12 30  1  0  0  0  0
 13 32  1  0  0  0  0
 13 14  1  0  0  0  0
 14 33  1  0  0  0  0
  8 15  1  0  0  0  0
 15 20  1  0  0  0  0
 15 16  2  0  0  0  0
 16 17  1  0  0  0  0
 17 18  2  0  0  0  0
 18 19  1  0  0  0  0
 19 20  2  0  0  0  0
 19 21  1  0  0  0  0
 20 37  1  0  0  0  0
 21 22  1  0  0  0  0
 21 38  1  0  0  0  0
 22 45  1  0  0  0  0
 23 41  1  0  0  0  0
 21 23  1  0  0  0  0
  6 24  1  0  0  0  0
 24 25  2  0  0  0  0
  3 25  1  0  0  0  0
  9 28  1  0  0  0  0
 12 29  1  0  0  0  0
 12 31  1  0  0  0  0
 16 34  1  0  0  0  0
 17 35  1  0  0  0  0
 18 36  1  0  0  0  0
 22 39  1  0  0  0  0
 23 40  1  0  0  0  0
 23 42  1  0  0  0  0
 24 43  1  0  0  0  0
 25 44  1  0  0  0  0
 45 46  2  0  0  0  0
 45 47  1  0  0  0  0
 47 69  1  0  0  0  0
 47 48  2  0  0  0  0
 48 49  1  0  0  0  0
 49 50  2  0  0  0  0
 50 68  1  0  0  0  0
 50 51  1  0  0  0  0
 51 52  1  0  0  0  0
 52 59  1  0  0  0  0
 52 53  2  0  0  0  0
 53 72  1  0  0  0  0
 53 54  1  0  0  0  0
 54 55  1  0  0  0  0
 55 56  1  0  0  0  0
 56 75  1  0  0  0  0
 57 58  1  0  0  0  0
 54 57  2  0  0  0  0
 51 58  2  0  0  0  0
 59 60  2  0  0  0  0
 60 61  1  0  0  0  0
 60 78  1  0  0  0  0
 61 79  1  0  0  0  0
 62 80  1  0  0  0  0
 61 62  2  0  0  0  0
 62 63  1  0  0  0  0
 63 64  2  0  0  0  0
 59 64  1  0  0  0  0
 65 82  1  0  0  0  0
 65 67  1  0  0  0  0
 63 65  1  0  0  0  0
 65 66  1  0  0  0  0
 66 83  1  0  0  0  0
 67 86  1  0  0  0  0
 67 84  1  0  0  0  0
 68 69  2  0  0  0  0
 68 87  1  0  0  0  0
 69 88  1  0  0  0  0
 48 70  1  0  0  0  0
 49 71  1  0  0  0  0
 56 73  1  0  0  0  0
 56 74  1  0  0  0  0
 57 76  1  0  0  0  0
 58 77  1  0  0  0  0
 64 81  1  0  0  0  0
 67 85  1  0  0  0  0
 89 91  1  0  0  0  0
 66 89  1  0  0  0  0
 89 90  2  0  0  0  0
 91 92  2  0  0  0  0
 92 93  1  0  0  0  0
 92114  1  0  0  0  0
 93115  1  0  0  0  0
 94 95  1  0  0  0  0
 93 94  2  0  0  0  0
 95102  2  0  0  0  0
 95 96  1  0  0  0  0
 96 97  2  0  0  0  0
 97 98  1  0  0  0  0
 98 99  1  0  0  0  0
 98101  2  0  0  0  0
 99100  1  0  0  0  0
100117  1  0  0  0  0
100118  1  0  0  0  0
101120  1  0  0  0  0
102121  1  0  0  0  0
101102  1  0  0  0  0
 96103  1  0  0  0  0
103108  1  0  0  0  0
103104  2  0  0  0  0
104105  1  0  0  0  0
105106  2  0  0  0  0
106107  1  0  0  0  0
107108  2  0  0  0  0
107109  1  0  0  0  0
108125  1  0  0  0  0
109110  1  0  0  0  0
109126  1  0  0  0  0
110133  1  0  0  0  0
109111  1  0  0  0  0
111129  1  0  0  0  0
 94112  1  0  0  0  0
112113  2  0  0  0  0
 91113  1  0  0  0  0
 97116  1  0  0  0  0
100119  1  0  0  0  0
104122  1  0  0  0  0
105123  1  0  0  0  0
106124  1  0  0  0  0
110127  1  0  0  0  0
111128  1  0  0  0  0
111130  1  0  0  0  0
112131  1  0  0  0  0
113132  1  0  0  0  0
133134  2  0  0  0  0
133135  1  0  0  0  0
135157  1  0  0  0  0
135136  2  0  0  0  0
136137  1  0  0  0  0
137138  2  0  0  0  0
138156  1  0  0  0  0
139140  1  0  0  0  0
138139  1  0  0  0  0
140147  1  0  0  0  0
141160  1  0  0  0  0
140141  2  0  0  0  0
141142  1  0  0  0  0
142143  1  0  0  0  0
143144  1  0  0  0  0
144163  1  0  0  0  0
142145  2  0  0  0  0
145146  1  0  0  0  0
139146  2  0  0  0  0
147148  2  0  0  0  0
148149  1  0  0  0  0
148166  1  0  0  0  0
149167  1  0  0  0  0
150168  1  0  0  0  0
149150  2  0  0  0  0
150151  1  0  0  0  0
151152  2  0  0  0  0
147152  1  0  0  0  0
153170  1  0  0  0  0
153155  1  0  0  0  0
151153  1  0  0  0  0
153154  1  0  0  0  0
154171  1  0  0  0  0
155174  1  0  0  0  0
155172  1  0  0  0  0
156175  1  0  0  0  0
156157  2  0  0  0  0
157176  1  0  0  0  0
136158  1  0  0  0  0
137159  1  0  0  0  0
144161  1  0  0  0  0
144162  1  0  0  0  0
145164  1  0  0  0  0
146165  1  0  0  0  0
152169  1  0  0  0  0
155173  1  0  0  0  0
177179  1  0  0  0  0
177180  1  0  0  0  0
177178  1  0  0  0  0
177181  1  0  0  0  0
182183  1  0  0  0  0
182190  1  0  0  0  0
183186  1  0  0  0  0
183184  1  0  0  0  0
184193  1  0  0  0  0
184192  1  0  0  0  0
183185  1  0  0  0  0
186187  1  0  0  0  0
154187  1  0  0  0  0
187188  2  0  0  0  0
182189  1  0  0  0  0
182191  1  0  0  0  0
184194  1  0  0  0  0
185195  1  0  0  0  0
185196  1  0  0  0  0
185197  1  0  0  0  0
M  END
> <atom.dprop.PartialCharge>
0.645940 -0.544090 -0.136050 -0.075800 -0.130690 -0.001200 -0.073180 0.009440 -0.198620 0.126610 -0.325460 0.112080 -0.152670 -0.081470 -0.045880 -0.108780 -0.131850 -0.102240 -0.112840 -0.107240 0.142280 -0.559680 -0.101000 -0.130690 -0.075800 0.155280 0.143160 0.144710 0.045140 0.045140 0.045140 0.155000 0.142980 0.136680 0.134390 0.142320 0.132170 0.089080 0.302880 0.044560 0.044560 0.044560 0.143160 0.155280 0.672100 -0.599640 -0.140490 -0.090190 -0.128090 -0.009340 -0.076540 0.007030 -0.147710 0.128280 -0.324370 0.113120 -0.201090 -0.082160 -0.041520 -0.103900 -0.131070 -0.112960 -0.101940 -0.107320 0.153160 -0.566810 -0.114050 -0.128090 -0.090190 0.148440 0.139500 0.157410 0.045770 0.045770 0.045770 0.140990 0.141090 0.136710 0.138690 0.140610 0.135580 0.086320 0.314750 0.046590 0.046590 0.046590 0.139500 0.148440 0.672560 -0.618450 -0.143100 -0.097620 -0.128260 -0.003910 -0.077500 0.008100 -0.148400 0.127970 -0.323940 0.111750 -0.200880 -0.079560 -0.044970 -0.109280 -0.134580 -0.102800 -0.109840 -0.103820 0.149200 -0.565990 -0.103280 -0.128260 -0.097620 0.149100 0.142920 0.155320 0.046200 0.046200 0.046200 0.142150 0.139690 0.134390 0.133820 0.142000 0.132300 0.087650 0.309430 0.044200 0.044200 0.044200 0.142920 0.149100 0.676660 -0.605660 -0.142360 -0.092340 -0.125460 -0.008400 -0.076170 0.010020 -0.144240 0.125120 -0.326200 0.112210 -0.202450 -0.082490 -0.049940 -0.098900 -0.119920 -0.109520 -0.111710 -0.112140 0.162550 -0.549890 -0.114000 -0.125460 -0.092340 0.146410 0.142330 0.158930 0.045160 0.045160 0.045160 0.140320 0.140120 0.145690 0.162340 0.136070 0.131450 0.076860 0.329200 0.048110 0.048110 0.048110 0.142330 0.146410 0.124480 -0.427630 0.050140 0.050140 0.050140 -0.113120 0.184360 -0.113120 -0.113120 -0.457510 0.748750 -0.604010 0.050790 0.050790 0.050790 0.050790 0.050790 0.050790 0.050790 0.050790 0.050790

$$$$
