mom_tetramer.pdb
  -OEChem-09092515033D

197208  0     1  0  0  0  0  0999 V2000
   -1.0900    5.3950   -2.3620 C   0  0  0  0  0  0  0  0  0  0  0  0
   -0.2220    4.3300   -1.9890 O   0  0  0  0  0  0  0  0  0  0  0  0
   -0.7920    3.2070   -1.4570 C   0  0  0  0  0  0  0  0  0  0  0  0
   -2.1450    2.9990   -1.2320 C   0  0  0  0  0  0  0  0  0  0  0  0
   -2.5840    1.7970   -0.6570 C   0  0  0  0  0  0  0  0  0  0  0  0
   -1.6890    0.7650   -0.3140 C   0  0  0  0  0  0  0  0  0  0  0  0
   -2.2140   -0.4430    0.3700 C   0  0  0  0  0  0  0  0  0  0  0  0
   -3.2370   -1.2450   -0.2100 C   0  0  0  0  0  0  0  0  0  0  0  0
   -3.7190   -2.3770    0.4560 C   0  0  0  0  0  0  0  0  0  0  0  0
   -4.7670   -3.2080   -0.2120 C   0  0  0  0  0  0  0  0  0  0  0  0
   -5.3550   -2.8450   -1.2170 O   0  0  0  0  0  0  0  0  0  0  0  0
   -3.2140   -2.7020    1.7190 C   0  0  0  0  0  0  0  0  0  0  0  0
   -2.1670   -1.9740    2.2720 C   0  0  0  0  0  0  0  0  0  0  0  0
   -1.6970   -0.8370    1.6100 C   0  0  0  0  0  0  0  0  0  0  0  0
   -0.3090    0.9540   -0.5830 C   0  0  0  0  0  0  0  0  0  0  0  0
    0.7110   -0.0930   -0.3440 C   0  0  0  0  0  0  0  0  0  0  0  0
    1.8360    0.1680    0.4520 C   0  0  0  0  0  0  0  0  0  0  0  0
    2.8010   -0.8230    0.6940 C   0  0  0  0  0  0  0  0  0  0  0  0
    3.9660   -0.5150    1.6020 C   0  0  2  0  0  0  0  0  0  0  0  0
    5.2500   -0.4100    0.7760 C   0  0  0  0  0  0  0  0  0  0  0  0
    4.1000   -1.4470    2.7160 N   0  0  0  0  0  0  0  0  0  0  0  0
    2.6370   -2.0980    0.1370 C   0  0  0  0  0  0  0  0  0  0  0  0
    1.5230   -2.3790   -0.6430 C   0  0  0  0  0  0  0  0  0  0  0  0
    0.5800   -1.3810   -0.8920 C   0  0  0  0  0  0  0  0  0  0  0  0
    0.1090    2.1890   -1.1280 C   0  0  0  0  0  0  0  0  0  0  0  0
   -1.6270    5.7940   -1.4950 H   0  0  0  0  0  0  0  0  0  0  0  0
   -1.7860    5.0850   -3.1490 H   0  0  0  0  0  0  0  0  0  0  0  0
   -0.4710    6.2020   -2.7680 H   0  0  0  0  0  0  0  0  0  0  0  0
   -2.8880    3.7500   -1.4800 H   0  0  0  0  0  0  0  0  0  0  0  0
   -3.6480    1.6760   -0.4600 H   0  0  0  0  0  0  0  0  0  0  0  0
   -3.6310   -0.9760   -1.1820 H   0  0  0  0  0  0  0  0  0  0  0  0
   -3.6050   -3.5340    2.3000 H   0  0  0  0  0  0  0  0  0  0  0  0
   -1.7180   -2.2860    3.2100 H   0  0  0  0  0  0  0  0  0  0  0  0
   -0.8980   -0.2730    2.0860 H   0  0  0  0  0  0  0  0  0  0  0  0
    1.9440    1.1430    0.9240 H   0  0  0  0  0  0  0  0  0  0  0  0
    3.8060    0.4590    2.0820 H   0  0  0  0  0  0  0  0  0  0  0  0
    5.4970   -1.3520    0.2750 H   0  0  0  0  0  0  0  0  0  0  0  0
    5.1400    0.3600    0.0030 H   0  0  0  0  0  0  0  0  0  0  0  0
    6.1040   -0.1340    1.4040 H   0  0  0  0  0  0  0  0  0  0  0  0
    4.9880   -1.3490    3.1750 H   0  0  0  0  0  0  0  0  0  0  0  0
    3.3520   -2.8870    0.3590 H   0  0  0  0  0  0  0  0  0  0  0  0
    1.3770   -3.3790   -1.0370 H   0  0  0  0  0  0  0  0  0  0  0  0
   -0.2840   -1.6250   -1.5040 H   0  0  0  0  0  0  0  0  0  0  0  0
    1.1680    2.3570   -1.3200 H   0  0  0  0  0  0  0  0  0  0  0  0
   -3.2030   -2.3720   10.8060 C   0  0  0  0  0  0  0  0  0  0  0  0
   -2.3940   -1.2070   10.6830 O   0  0  0  0  0  0  0  0  0  0  0  0
   -1.3590   -1.2370    9.7890 C   0  0  0  0  0  0  0  0  0  0  0  0
   -0.9910   -2.3130    8.9940 C   0  0  0  0  0  0  0  0  0  0  0  0
    0.1090   -2.2040    8.1310 C   0  0  0  0  0  0  0  0  0  0  0  0
    0.8700   -1.0230    8.0370 C   0  0  0  0  0  0  0  0  0  0  0  0
    2.0770   -1.0190    7.1780 C   0  0  0  0  0  0  0  0  0  0  0  0
    2.0110   -1.3310    5.8100 C   0  0  0  0  0  0  0  0  0  0  0  0
    3.1620   -1.3120    4.9980 C   0  0  0  0  0  0  0  0  0  0  0  0
    2.9950   -1.6160    3.5490 C   0  0  0  0  0  0  0  0  0  0  0  0
    1.8870   -1.9610    3.1490 O   0  0  0  0  0  0  0  0  0  0  0  0
    4.3880   -0.9400    5.5560 C   0  0  0  0  0  0  0  0  0  0  0  0
    4.4710   -0.6370    6.9090 C   0  0  0  0  0  0  0  0  0  0  0  0
    3.3340   -0.6920    7.7100 C   0  0  0  0  0  0  0  0  0  0  0  0
    0.4720    0.0950    8.8160 C   0  0  0  0  0  0  0  0  0  0  0  0
    1.1490    1.4070    8.7340 C   0  0  0  0  0  0  0  0  0  0  0  0
    1.6710    2.0140    9.8820 C   0  0  0  0  0  0  0  0  0  0  0  0
    2.3420    3.2430    9.8080 C   0  0  0  0  0  0  0  0  0  0  0  0
    2.9420    3.8310   11.0580 C   0  0  2  0  0  0  0  0  0  0  0  0
    2.1190    5.0470   11.4880 C   0  0  0  0  0  0  0  0  0  0  0  0
    4.3620    4.1370   10.9250 N   0  0  0  0  0  0  0  0  0  0  0  0
    2.4920    3.8810    8.5700 C   0  0  0  0  0  0  0  0  0  0  0  0
    1.9870    3.2920    7.4200 C   0  0  0  0  0  0  0  0  0  0  0  0
    1.3150    2.0720    7.5060 C   0  0  0  0  0  0  0  0  0  0  0  0
   -0.6280   -0.0490    9.6940 C   0  0  0  0  0  0  0  0  0  0  0  0
   -2.6200   -3.2310   11.1560 H   0  0  0  0  0  0  0  0  0  0  0  0
   -3.7200   -2.6020    9.8680 H   0  0  0  0  0  0  0  0  0  0  0  0
   -3.9690   -2.1660   11.5610 H   0  0  0  0  0  0  0  0  0  0  0  0
   -1.5240   -3.2570    9.0260 H   0  0  0  0  0  0  0  0  0  0  0  0
    0.3900   -3.0720    7.5350 H   0  0  0  0  0  0  0  0  0  0  0  0
    1.0420   -1.5590    5.3610 H   0  0  0  0  0  0  0  0  0  0  0  0
    5.2960   -0.8540    4.9750 H   0  0  0  0  0  0  0  0  0  0  0  0
    5.4210   -0.3330    7.3410 H   0  0  0  0  0  0  0  0  0  0  0  0
    3.4360   -0.4340    8.7640 H   0  0  0  0  0  0  0  0  0  0  0  0
    1.5910    1.5060   10.8430 H   0  0  0  0  0  0  0  0  0  0  0  0
    2.8930    3.0950   11.8720 H   0  0  0  0  0  0  0  0  0  0  0  0
    2.1440    5.8450   10.7380 H   0  0  0  0  0  0  0  0  0  0  0  0
    1.0700    4.7620   11.6350 H   0  0  0  0  0  0  0  0  0  0  0  0
    2.4880    5.4640   12.4310 H   0  0  0  0  0  0  0  0  0  0  0  0
    4.6840    4.7230   11.6740 H   0  0  0  0  0  0  0  0  0  0  0  0
    3.0510    4.8110    8.4990 H   0  0  0  0  0  0  0  0  0  0  0  0
    2.1360    3.7690    6.4570 H   0  0  0  0  0  0  0  0  0  0  0  0
    0.9400    1.6230    6.5900 H   0  0  0  0  0  0  0  0  0  0  0  0
   -0.9310    0.7940   10.3140 H   0  0  0  0  0  0  0  0  0  0  0  0
   12.1580   -3.4210    9.6990 C   0  0  0  0  0  0  0  0  0  0  0  0
   11.4440   -3.3060   10.9250 O   0  0  0  0  0  0  0  0  0  0  0  0
   10.6350   -2.2160   11.0880 C   0  0  0  0  0  0  0  0  0  0  0  0
   10.4490   -1.1870   10.1750 C   0  0  0  0  0  0  0  0  0  0  0  0
    9.5990   -0.1180   10.4860 C   0  0  0  0  0  0  0  0  0  0  0  0
    8.9130   -0.0450   11.7150 C   0  0  0  0  0  0  0  0  0  0  0  0
    8.1130    1.1640   12.0150 C   0  0  0  0  0  0  0  0  0  0  0  0
    7.0880    1.5980   11.1590 C   0  0  0  0  0  0  0  0  0  0  0  0
    6.3250    2.7420   11.4620 C   0  0  0  0  0  0  0  0  0  0  0  0
    5.2130    3.1040   10.5380 C   0  0  0  0  0  0  0  0  0  0  0  0
    5.0730    2.4480    9.5110 O   0  0  0  0  0  0  0  0  0  0  0  0
    6.5730    3.4420   12.6450 C   0  0  0  0  0  0  0  0  0  0  0  0
    7.5820    3.0280   13.5010 C   0  0  0  0  0  0  0  0  0  0  0  0
    8.3510    1.9110   13.1820 C   0  0  0  0  0  0  0  0  0  0  0  0
    9.0620   -1.1170   12.6310 C   0  0  0  0  0  0  0  0  0  0  0  0
    8.3190   -1.1890   13.9080 C   0  0  0  0  0  0  0  0  0  0  0  0
    9.0010   -1.3380   15.1200 C   0  0  0  0  0  0  0  0  0  0  0  0
    8.3040   -1.4060   16.3330 C   0  0  0  0  0  0  0  0  0  0  0  0
    9.0710   -1.5020   17.6190 C   0  0  2  0  0  0  0  0  0  0  0  0
    8.8980   -2.8890   18.2290 C   0  0  0  0  0  0  0  0  0  0  0  0
    8.7130   -0.4470   18.5610 N   0  0  0  0  0  0  0  0  0  0  0  0
    6.9060   -1.3010   16.3420 C   0  0  0  0  0  0  0  0  0  0  0  0
    6.2150   -1.1340   15.1530 C   0  0  0  0  0  0  0  0  0  0  0  0
    6.9170   -1.0930   13.9480 C   0  0  0  0  0  0  0  0  0  0  0  0
    9.9410   -2.1740   12.3010 C   0  0  0  0  0  0  0  0  0  0  0  0
   12.8590   -2.5900    9.5650 H   0  0  0  0  0  0  0  0  0  0  0  0
   11.4770   -3.5050    8.8460 H   0  0  0  0  0  0  0  0  0  0  0  0
   12.7470   -4.3440    9.7440 H   0  0  0  0  0  0  0  0  0  0  0  0
   10.9560   -1.1740    9.2160 H   0  0  0  0  0  0  0  0  0  0  0  0
    9.4880    0.6860    9.7600 H   0  0  0  0  0  0  0  0  0  0  0  0
    6.8580    1.0190   10.2640 H   0  0  0  0  0  0  0  0  0  0  0  0
    5.9950    4.3030   12.9510 H   0  0  0  0  0  0  0  0  0  0  0  0
    7.7610    3.5610   14.4300 H   0  0  0  0  0  0  0  0  0  0  0  0
    9.1240    1.6050   13.8830 H   0  0  0  0  0  0  0  0  0  0  0  0
   10.0900   -1.3600   15.1270 H   0  0  0  0  0  0  0  0  0  0  0  0
   10.1450   -1.3500   17.4310 H   0  0  0  0  0  0  0  0  0  0  0  0
    7.8570   -3.0830   18.5110 H   0  0  0  0  0  0  0  0  0  0  0  0
    9.2000   -3.6570   17.5070 H   0  0  0  0  0  0  0  0  0  0  0  0
    9.5120   -3.0130   19.1270 H   0  0  0  0  0  0  0  0  0  0  0  0
    9.0300   -0.6430   19.4810 H   0  0  0  0  0  0  0  0  0  0  0  0
    6.3660   -1.2850   17.2870 H   0  0  0  0  0  0  0  0  0  0  0  0
    5.1370   -1.0130   15.1660 H   0  0  0  0  0  0  0  0  0  0  0  0
    6.3550   -0.9560   13.0280 H   0  0  0  0  0  0  0  0  0  0  0  0
   10.0780   -2.9960   13.0020 H   0  0  0  0  0  0  0  0  0  0  0  0
   11.0650   10.1410   16.9740 C   0  0  0  0  0  0  0  0  0  0  0  0
   12.0980    9.1810   17.1680 O   0  0  0  0  0  0  0  0  0  0  0  0
   11.7360    7.9280   17.5770 C   0  0  0  0  0  0  0  0  0  0  0  0
   10.4430    7.4910   17.8210 C   0  0  0  0  0  0  0  0  0  0  0  0
   10.2170    6.1730   18.2420 C   0  0  0  0  0  0  0  0  0  0  0  0
   11.2690    5.2530   18.4200 C   0  0  0  0  0  0  0  0  0  0  0  0
   10.9270    3.9060   18.9430 C   0  0  0  0  0  0  0  0  0  0  0  0
   10.0360    3.0400   18.3140 C   0  0  0  0  0  0  0  0  0  0  0  0
    9.7630    1.7490   18.8380 C   0  0  0  0  0  0  0  0  0  0  0  0
    8.8530    0.8640   18.1090 C   0  0  0  0  0  0  0  0  0  0  0  0
    8.3010    1.3160   17.0900 O   0  0  0  0  0  0  0  0  0  0  0  0
   10.4190    1.3010   19.9710 C   0  0  0  0  0  0  0  0  0  0  0  0
   11.2580    2.1640   20.6210 C   0  0  0  0  0  0  0  0  0  0  0  0
   11.4880    3.4540   20.1320 C   0  0  0  0  0  0  0  0  0  0  0  0
   12.6010    5.6900   18.1570 C   0  0  0  0  0  0  0  0  0  0  0  0
   13.7910    4.8070   18.2640 C   0  0  0  0  0  0  0  0  0  0  0  0
   14.9000    5.1670   19.0500 C   0  0  0  0  0  0  0  0  0  0  0  0
   16.0230    4.3300   19.1680 C   0  0  0  0  0  0  0  0  0  0  0  0
   17.1730    4.7480   20.0760 C   0  0  2  0  0  0  0  0  0  0  0  0
   18.3840    5.1170   19.2190 C   0  0  0  0  0  0  0  0  0  0  0  0
   17.4500    3.7020   21.0490 N   0  0  0  0  0  0  0  0  0  0  0  0
   16.0360    3.1020   18.4880 C   0  0  0  0  0  0  0  0  0  0  0  0
   14.9570    2.7370   17.6900 C   0  0  0  0  0  0  0  0  0  0  0  0
   13.8540    3.5870   17.5740 C   0  0  0  0  0  0  0  0  0  0  0  0
   12.7960    7.0310   17.7490 C   0  0  0  0  0  0  0  0  0  0  0  0
   10.5340   10.3510   17.9090 H   0  0  0  0  0  0  0  0  0  0  0  0
   10.3690    9.8290   16.1880 H   0  0  0  0  0  0  0  0  0  0  0  0
   11.5340   11.0740   16.6450 H   0  0  0  0  0  0  0  0  0  0  0  0
    9.5840    8.1420   17.7060 H   0  0  0  0  0  0  0  0  0  0  0  0
    9.1930    5.8650   18.4560 H   0  0  0  0  0  0  0  0  0  0  0  0
    9.5570    3.3470   17.3860 H   0  0  0  0  0  0  0  0  0  0  0  0
   10.3340    0.3090   20.3850 H   0  0  0  0  0  0  0  0  0  0  0  0
   11.7400    1.7620   21.4980 H   0  0  0  0  0  0  0  0  0  0  0  0
   12.1500    4.1290   20.6590 H   0  0  0  0  0  0  0  0  0  0  0  0
   14.8850    6.1010   19.6090 H   0  0  0  0  0  0  0  0  0  0  0  0
   16.8960    5.6400   20.6500 H   0  0  0  0  0  0  0  0  0  0  0  0
   18.7550    4.2740   18.6260 H   0  0  0  0  0  0  0  0  0  0  0  0
   18.1130    5.9170   18.5180 H   0  0  0  0  0  0  0  0  0  0  0  0
   19.2090    5.4810   19.8370 H   0  0  0  0  0  0  0  0  0  0  0  0
   18.3400    3.7390   21.5240 H   0  0  0  0  0  0  0  0  0  0  0  0
   16.8770    2.4180   18.5920 H   0  0  0  0  0  0  0  0  0  0  0  0
   14.9650    1.7860   17.1640 H   0  0  0  0  0  0  0  0  0  0  0  0
   13.0270    3.2820   16.9380 H   0  0  0  0  0  0  0  0  0  0  0  0
   13.8070    7.3880   17.5450 H   0  0  0  0  0  0  0  0  0  0  0  0
   -4.1160   -5.3900    0.4770 C   0  0  0  0  0  0  0  0  0  0  0  0
   -5.1030   -4.3470    0.4590 O   0  0  0  0  0  0  0  0  0  0  0  0
   -3.8070   -5.6400   -0.5400 H   0  0  0  0  0  0  0  0  0  0  0  0
   -4.5590   -6.2660    0.9560 H   0  0  0  0  0  0  0  0  0  0  0  0
   -3.2350   -5.1250    1.0630 H   0  0  0  0  0  0  0  0  0  0  0  0
   13.5490    5.3280   22.8080 C   0  0  0  0  0  0  0  0  0  0  0  0
   14.3870    4.0440   22.9530 C   0  0  0  0  0  0  0  0  0  0  0  0
   14.7510    3.8340   24.4120 C   0  0  0  0  0  0  0  0  0  0  0  0
   13.5940    2.8550   22.4750 C   0  0  0  0  0  0  0  0  0  0  0  0
   15.5370    4.2460   22.1090 O   0  0  0  0  0  0  0  0  0  0  0  0
   16.4740    3.2860   21.9220 C   0  0  0  0  0  0  0  0  0  0  0  0
   16.5130    2.2010   22.4830 O   0  0  0  0  0  0  0  0  0  0  0  0
   12.6180    5.2820   23.3850 H   0  0  0  0  0  0  0  0  0  0  0  0
   14.1200    6.2010   23.1410 H   0  0  0  0  0  0  0  0  0  0  0  0
   13.2890    5.5330   21.7640 H   0  0  0  0  0  0  0  0  0  0  0  0
   15.4270    4.6190   24.7550 H   0  0  0  0  0  0  0  0  0  0  0  0
   15.2550    2.8740   24.5560 H   0  0  0  0  0  0  0  0  0  0  0  0
   13.8490    3.8270   25.0350 H   0  0  0  0  0  0  0  0  0  0  0  0
   13.5700    2.8880   21.3870 H   0  0  0  0  0  0  0  0  0  0  0  0
   14.0370    1.8810   22.6980 H   0  0  0  0  0  0  0  0  0  0  0  0
   12.5960    2.8710   22.9300 H   0  0  0  0  0  0  0  0  0  0  0  0
  1  2  1  0  0  0  0
  1 26  1  0  0  0  0
  2  3  1  0  0  0  0
  3  4  2  0  0  0  0
  3 25  1  0  0  0  0
  4  5  1  0  0  0  0
  5 30  1  0  0  0  0
  5  6  2  0  0  0  0
  6  7  1  0  0  0  0
  7 14  1  0  0  0  0
  7  8  2  0  0  0  0
  8  9  1  0  0  0  0
  9 12  2  0  0  0  0
  9 10  1  0  0  0  0
 10178  1  0  0  0  0
 10 11  2  0  0  0  0
 12 13  1  0  0  0  0
 12 32  1  0  0  0  0
 13 33  1  0  0  0  0
 14 34  1  0  0  0  0
 13 14  2  0  0  0  0
 15 16  1  0  0  0  0
  6 15  1  0  0  0  0
 16 17  2  0  0  0  0
 17 18  1  0  0  0  0
 17 35  1  0  0  0  0
 18 19  1  0  0  0  0
 19 36  1  0  0  0  0
 19 21  1  0  0  0  0
 20 39  1  0  0  0  0
 19 20  1  0  0  0  0
 21 40  1  0  0  0  0
 21 54  1  0  0  0  0
 22 41  1  0  0  0  0
 18 22  2  0  0  0  0
 22 23  1  0  0  0  0
 23 24  2  0  0  0  0
 16 24  1  0  0  0  0
 15 25  2  0  0  0  0
  1 27  1  0  0  0  0
  1 28  1  0  0  0  0
  4 29  1  0  0  0  0
  8 31  1  0  0  0  0
 20 37  1  0  0  0  0
 20 38  1  0  0  0  0
 23 42  1  0  0  0  0
 24 43  1  0  0  0  0
 25 44  1  0  0  0  0
 45 70  1  0  0  0  0
 45 72  1  0  0  0  0
 45 46  1  0  0  0  0
 46 47  1  0  0  0  0
 48 73  1  0  0  0  0
 47 48  2  0  0  0  0
 48 49  1  0  0  0  0
 49 50  2  0  0  0  0
 50 59  1  0  0  0  0
 51 58  1  0  0  0  0
 50 51  1  0  0  0  0
 51 52  2  0  0  0  0
 53 56  2  0  0  0  0
 52 53  1  0  0  0  0
 53 54  1  0  0  0  0
 54 55  2  0  0  0  0
 56 57  1  0  0  0  0
 57 77  1  0  0  0  0
 57 58  2  0  0  0  0
 58 78  1  0  0  0  0
 59 69  2  0  0  0  0
 59 60  1  0  0  0  0
 60 61  2  0  0  0  0
 61 79  1  0  0  0  0
 61 62  1  0  0  0  0
 62 63  1  0  0  0  0
 63 64  1  0  0  0  0
 63 80  1  0  0  0  0
 64 82  1  0  0  0  0
 64 83  1  0  0  0  0
 63 65  1  0  0  0  0
 65 84  1  0  0  0  0
 62 66  2  0  0  0  0
 67 68  2  0  0  0  0
 66 67  1  0  0  0  0
 60 68  1  0  0  0  0
 47 69  1  0  0  0  0
 69 88  1  0  0  0  0
 45 71  1  0  0  0  0
 49 74  1  0  0  0  0
 52 75  1  0  0  0  0
 56 76  1  0  0  0  0
 64 81  1  0  0  0  0
 66 85  1  0  0  0  0
 67 86  1  0  0  0  0
 68 87  1  0  0  0  0
 89116  1  0  0  0  0
 89 90  1  0  0  0  0
 90 91  1  0  0  0  0
 91113  2  0  0  0  0
 92 93  2  0  0  0  0
 91 92  1  0  0  0  0
 93 94  1  0  0  0  0
 94 95  1  0  0  0  0
 94103  2  0  0  0  0
 95102  2  0  0  0  0
 96 97  2  0  0  0  0
 95 96  1  0  0  0  0
 97100  1  0  0  0  0
 65 98  1  0  0  0  0
 97 98  1  0  0  0  0
 98 99  2  0  0  0  0
100120  1  0  0  0  0
100101  2  0  0  0  0
101121  1  0  0  0  0
101102  1  0  0  0  0
102122  1  0  0  0  0
103104  1  0  0  0  0
104112  1  0  0  0  0
104105  2  0  0  0  0
105123  1  0  0  0  0
105106  1  0  0  0  0
106110  2  0  0  0  0
106107  1  0  0  0  0
107124  1  0  0  0  0
107108  1  0  0  0  0
107109  1  0  0  0  0
108125  1  0  0  0  0
108127  1  0  0  0  0
109128  1  0  0  0  0
110129  1  0  0  0  0
111130  1  0  0  0  0
110111  1  0  0  0  0
111112  2  0  0  0  0
103113  1  0  0  0  0
113132  1  0  0  0  0
 89114  1  0  0  0  0
 89115  1  0  0  0  0
 92117  1  0  0  0  0
 93118  1  0  0  0  0
 96119  1  0  0  0  0
108126  1  0  0  0  0
112131  1  0  0  0  0
133134  1  0  0  0  0
133158  1  0  0  0  0
134135  1  0  0  0  0
135157  2  0  0  0  0
135136  1  0  0  0  0
136137  2  0  0  0  0
137138  1  0  0  0  0
137162  1  0  0  0  0
138139  1  0  0  0  0
139146  2  0  0  0  0
140141  2  0  0  0  0
139140  1  0  0  0  0
141144  1  0  0  0  0
109142  1  0  0  0  0
141142  1  0  0  0  0
142143  2  0  0  0  0
144164  1  0  0  0  0
144145  2  0  0  0  0
145165  1  0  0  0  0
145146  1  0  0  0  0
146166  1  0  0  0  0
147148  1  0  0  0  0
138147  2  0  0  0  0
148149  2  0  0  0  0
149150  1  0  0  0  0
149167  1  0  0  0  0
150151  1  0  0  0  0
151168  1  0  0  0  0
151153  1  0  0  0  0
152171  1  0  0  0  0
151152  1  0  0  0  0
153172  1  0  0  0  0
153187  1  0  0  0  0
154173  1  0  0  0  0
150154  2  0  0  0  0
154155  1  0  0  0  0
155156  2  0  0  0  0
148156  1  0  0  0  0
147157  1  0  0  0  0
133159  1  0  0  0  0
133160  1  0  0  0  0
136161  1  0  0  0  0
140163  1  0  0  0  0
152169  1  0  0  0  0
152170  1  0  0  0  0
155174  1  0  0  0  0
156175  1  0  0  0  0
157176  1  0  0  0  0
177180  1  0  0  0  0
177181  1  0  0  0  0
177178  1  0  0  0  0
177179  1  0  0  0  0
182183  1  0  0  0  0
182190  1  0  0  0  0
182189  1  0  0  0  0
183184  1  0  0  0  0
184193  1  0  0  0  0
184192  1  0  0  0  0
184194  1  0  0  0  0
185196  1  0  0  0  0
185197  1  0  0  0  0
183185  1  0  0  0  0
183186  1  0  0  0  0
186187  1  0  0  0  0
187188  2  0  0  0  0
182191  1  0  0  0  0
185195  1  0  0  0  0
M  END
> <atom.dprop.PartialCharge>
0.107260 -0.316520 0.122490 -0.206480 -0.089220 -0.069790 -0.051260 -0.059890 -0.128590 0.643280 -0.538950 -0.072780 -0.145460 -0.084230 0.011110 -0.048700 -0.105450 -0.091250 0.150020 -0.114800 -0.562140 -0.108490 -0.132650 -0.109120 -0.150090 0.046060 0.046060 0.046060 0.141480 0.138940 0.155200 0.154680 0.139980 0.140260 0.140110 0.083600 0.048520 0.048520 0.048520 0.313490 0.138880 0.133780 0.135270 0.157690 0.113280 -0.325630 0.127720 -0.205160 -0.084470 -0.070230 -0.043780 -0.083180 -0.138570 0.675230 -0.612510 -0.074470 -0.148380 -0.105410 0.012150 -0.051430 -0.098530 -0.106330 0.154090 -0.106500 -0.560960 -0.107020 -0.145040 -0.116600 -0.147090 0.044910 0.044910 0.044910 0.140030 0.138310 0.147350 0.158960 0.132770 0.136420 0.135980 0.088990 0.046770 0.046770 0.046770 0.309020 0.143030 0.137630 0.138780 0.156700 0.113840 -0.327350 0.125680 -0.204470 -0.088290 -0.063660 -0.050950 -0.087030 -0.139030 0.688400 -0.619240 -0.072440 -0.138210 -0.096450 0.008510 -0.043630 -0.090950 -0.108470 0.150490 -0.103050 -0.567820 -0.116910 -0.132560 -0.107610 -0.145460 0.044930 0.044930 0.044930 0.139470 0.134620 0.141680 0.156240 0.141510 0.137630 0.144090 0.087310 0.043710 0.043710 0.043710 0.303340 0.126030 0.132140 0.136020 0.156030 0.112210 -0.327600 0.123630 -0.203550 -0.082640 -0.065530 -0.045390 -0.052790 -0.138880 0.683430 -0.613050 -0.101890 -0.140580 -0.086240 0.004080 -0.041110 -0.088510 -0.119980 0.155740 -0.099580 -0.543510 -0.118760 -0.133230 -0.104390 -0.146910 0.044030 0.044030 0.044030 0.140320 0.151890 0.158830 0.125750 0.138990 0.145430 0.146130 0.089160 0.046100 0.046100 0.046100 0.319820 0.126530 0.133110 0.139800 0.153630 0.121440 -0.439790 0.055530 0.055530 0.055530 -0.114080 0.188940 -0.114080 -0.114080 -0.449730 0.749190 -0.599830 0.051080 0.051080 0.051080 0.051080 0.051080 0.051080 0.051080 0.051080 0.051080

$$$$
