mom_tetramer.pdb
  -OEChem-09052515153D

197208  0     1  0  0  0  0  0999 V2000
   -1.1560    5.3720   -2.4040 C   0  0  0  0  0  0  0  0  0  0  0  0
   -0.2580    4.3280   -2.0530 O   0  0  0  0  0  0  0  0  0  0  0  0
   -0.8130    3.1940   -1.5270 C   0  0  0  0  0  0  0  0  0  0  0  0
   -2.1550    3.0010   -1.2290 C   0  0  0  0  0  0  0  0  0  0  0  0
   -2.5780    1.7960   -0.6600 C   0  0  0  0  0  0  0  0  0  0  0  0
   -1.6720    0.7560   -0.3700 C   0  0  0  0  0  0  0  0  0  0  0  0
   -2.1830   -0.4340    0.3440 C   0  0  0  0  0  0  0  0  0  0  0  0
   -3.1790   -1.2540   -0.2130 C   0  0  0  0  0  0  0  0  0  0  0  0
   -3.6830   -2.3560    0.4960 C   0  0  0  0  0  0  0  0  0  0  0  0
   -4.7130   -3.2140   -0.1570 C   0  0  0  0  0  0  0  0  0  0  0  0
   -5.2630   -2.9350   -1.2110 O   0  0  0  0  0  0  0  0  0  0  0  0
   -3.2000   -2.6330    1.7820 C   0  0  0  0  0  0  0  0  0  0  0  0
   -2.2010   -1.8420    2.3360 C   0  0  0  0  0  0  0  0  0  0  0  0
   -1.7030   -0.7520    1.6250 C   0  0  0  0  0  0  0  0  0  0  0  0
   -0.3050    0.9360   -0.7030 C   0  0  0  0  0  0  0  0  0  0  0  0
    0.7250   -0.0960   -0.4670 C   0  0  0  0  0  0  0  0  0  0  0  0
    1.8200    0.1760    0.3720 C   0  0  0  0  0  0  0  0  0  0  0  0
    2.7960   -0.8030    0.6410 C   0  0  0  0  0  0  0  0  0  0  0  0
    3.9290   -0.4700    1.5870 C   0  0  2  0  0  0  0  0  0  0  0  0
    5.2580   -0.4260    0.8320 C   0  0  0  0  0  0  0  0  0  0  0  0
    4.0330   -1.3480    2.7500 N   0  0  0  0  0  0  0  0  0  0  0  0
    2.6700   -2.0690    0.0570 C   0  0  0  0  0  0  0  0  0  0  0  0
    1.5980   -2.3490   -0.7890 C   0  0  0  0  0  0  0  0  0  0  0  0
    0.6410   -1.3670   -1.0550 C   0  0  0  0  0  0  0  0  0  0  0  0
    0.0950    2.1640   -1.2700 C   0  0  0  0  0  0  0  0  0  0  0  0
   -1.6840    5.7560   -1.5250 H   0  0  0  0  0  0  0  0  0  0  0  0
   -1.8590    5.0400   -3.1750 H   0  0  0  0  0  0  0  0  0  0  0  0
   -0.5660    6.1930   -2.8220 H   0  0  0  0  0  0  0  0  0  0  0  0
   -2.9010    3.7710   -1.4050 H   0  0  0  0  0  0  0  0  0  0  0  0
   -3.6310    1.6860   -0.4000 H   0  0  0  0  0  0  0  0  0  0  0  0
   -3.5630   -1.0370   -1.2110 H   0  0  0  0  0  0  0  0  0  0  0  0
   -3.5870   -3.4660    2.3610 H   0  0  0  0  0  0  0  0  0  0  0  0
   -1.8000   -2.0700    3.3200 H   0  0  0  0  0  0  0  0  0  0  0  0
   -0.9200   -0.1470    2.0840 H   0  0  0  0  0  0  0  0  0  0  0  0
    1.8840    1.1550    0.8520 H   0  0  0  0  0  0  0  0  0  0  0  0
    3.7570    0.5300    2.0060 H   0  0  0  0  0  0  0  0  0  0  0  0
    5.5250   -1.4080    0.4240 H   0  0  0  0  0  0  0  0  0  0  0  0
    5.2130    0.2860   -0.0000 H   0  0  0  0  0  0  0  0  0  0  0  0
    6.0720   -0.1160    1.4970 H   0  0  0  0  0  0  0  0  0  0  0  0
    4.9360   -1.3090    3.1910 H   0  0  0  0  0  0  0  0  0  0  0  0
    3.3890   -2.8530    0.2880 H   0  0  0  0  0  0  0  0  0  0  0  0
    1.4960   -3.3380   -1.2250 H   0  0  0  0  0  0  0  0  0  0  0  0
   -0.1900   -1.6090   -1.7130 H   0  0  0  0  0  0  0  0  0  0  0  0
    1.1430    2.3260   -1.5160 H   0  0  0  0  0  0  0  0  0  0  0  0
   -3.2090   -2.3920   10.7790 C   0  0  0  0  0  0  0  0  0  0  0  0
   -2.4630   -1.1920   10.6220 O   0  0  0  0  0  0  0  0  0  0  0  0
   -1.4150   -1.2320    9.7440 C   0  0  0  0  0  0  0  0  0  0  0  0
   -1.0080   -2.3350    9.0060 C   0  0  0  0  0  0  0  0  0  0  0  0
    0.1190   -2.2430    8.1760 C   0  0  0  0  0  0  0  0  0  0  0  0
    0.8620   -1.0480    8.0630 C   0  0  0  0  0  0  0  0  0  0  0  0
    2.0850   -1.0570    7.2460 C   0  0  0  0  0  0  0  0  0  0  0  0
    2.0230   -1.3550    5.8760 C   0  0  0  0  0  0  0  0  0  0  0  0
    3.1650   -1.3120    5.0600 C   0  0  0  0  0  0  0  0  0  0  0  0
    2.9380   -1.4780    3.5940 C   0  0  0  0  0  0  0  0  0  0  0  0
    1.7960   -1.6590    3.1910 O   0  0  0  0  0  0  0  0  0  0  0  0
    4.4000   -0.9900    5.6330 C   0  0  0  0  0  0  0  0  0  0  0  0
    4.4830   -0.7100    6.9970 C   0  0  0  0  0  0  0  0  0  0  0  0
    3.3390   -0.7450    7.7920 C   0  0  0  0  0  0  0  0  0  0  0  0
    0.4120    0.0920    8.7730 C   0  0  0  0  0  0  0  0  0  0  0  0
    1.0740    1.4080    8.6880 C   0  0  0  0  0  0  0  0  0  0  0  0
    1.5910    2.0070    9.8480 C   0  0  0  0  0  0  0  0  0  0  0  0
    2.2850    3.2260    9.8060 C   0  0  0  0  0  0  0  0  0  0  0  0
    2.8790    3.7720   11.0860 C   0  0  2  0  0  0  0  0  0  0  0  0
    2.1540    5.0530   11.5050 C   0  0  0  0  0  0  0  0  0  0  0  0
    4.3240    3.9840   11.0470 N   0  0  0  0  0  0  0  0  0  0  0  0
    2.4520    3.8670    8.5730 C   0  0  0  0  0  0  0  0  0  0  0  0
    1.9250    3.3030    7.4130 C   0  0  0  0  0  0  0  0  0  0  0  0
    1.2340    2.0900    7.4720 C   0  0  0  0  0  0  0  0  0  0  0  0
   -0.7170   -0.0310    9.6170 C   0  0  0  0  0  0  0  0  0  0  0  0
   -2.5810   -3.2030   11.1640 H   0  0  0  0  0  0  0  0  0  0  0  0
   -3.6920   -2.6770    9.8390 H   0  0  0  0  0  0  0  0  0  0  0  0
   -3.9960   -2.2030   11.5160 H   0  0  0  0  0  0  0  0  0  0  0  0
   -1.5270   -3.2860    9.0540 H   0  0  0  0  0  0  0  0  0  0  0  0
    0.4260   -3.1280    7.6230 H   0  0  0  0  0  0  0  0  0  0  0  0
    1.0520   -1.5740    5.4280 H   0  0  0  0  0  0  0  0  0  0  0  0
    5.3120   -0.9100    5.0550 H   0  0  0  0  0  0  0  0  0  0  0  0
    5.4320   -0.4270    7.4440 H   0  0  0  0  0  0  0  0  0  0  0  0
    3.4270   -0.4890    8.8470 H   0  0  0  0  0  0  0  0  0  0  0  0
    1.4970    1.4800   10.7970 H   0  0  0  0  0  0  0  0  0  0  0  0
    2.7300    3.0370   11.8890 H   0  0  0  0  0  0  0  0  0  0  0  0
    2.2810    5.8520   10.7670 H   0  0  0  0  0  0  0  0  0  0  0  0
    1.0790    4.8730   11.6250 H   0  0  0  0  0  0  0  0  0  0  0  0
    2.5390    5.4250   12.4610 H   0  0  0  0  0  0  0  0  0  0  0  0
    4.6540    4.6180   11.7540 H   0  0  0  0  0  0  0  0  0  0  0  0
    3.0250    4.7880    8.5080 H   0  0  0  0  0  0  0  0  0  0  0  0
    2.0740    3.7940    6.4550 H   0  0  0  0  0  0  0  0  0  0  0  0
    0.8410    1.6610    6.5540 H   0  0  0  0  0  0  0  0  0  0  0  0
   -1.0560    0.8300   10.1880 H   0  0  0  0  0  0  0  0  0  0  0  0
   12.2470   -3.2240    9.2020 C   0  0  0  0  0  0  0  0  0  0  0  0
   11.6860   -3.0530   10.4960 O   0  0  0  0  0  0  0  0  0  0  0  0
   10.8970   -1.9530   10.6860 C   0  0  0  0  0  0  0  0  0  0  0  0
   10.5920   -0.9850    9.7380 C   0  0  0  0  0  0  0  0  0  0  0  0
    9.7990    0.1130   10.0890 C   0  0  0  0  0  0  0  0  0  0  0  0
    9.2840    0.2690   11.3920 C   0  0  0  0  0  0  0  0  0  0  0  0
    8.5030    1.4830   11.7060 C   0  0  0  0  0  0  0  0  0  0  0  0
    7.3070    1.7550   11.0260 C   0  0  0  0  0  0  0  0  0  0  0  0
    6.5100    2.8680   11.3490 C   0  0  0  0  0  0  0  0  0  0  0  0
    5.1760    2.9530   10.6810 C   0  0  0  0  0  0  0  0  0  0  0  0
    4.8710    2.0660    9.8880 O   0  0  0  0  0  0  0  0  0  0  0  0
    6.9420    3.7490   12.3470 C   0  0  0  0  0  0  0  0  0  0  0  0
    8.1310    3.4930   13.0310 C   0  0  0  0  0  0  0  0  0  0  0  0
    8.9020    2.3750   12.7110 C   0  0  0  0  0  0  0  0  0  0  0  0
    9.5540   -0.7420   12.3480 C   0  0  0  0  0  0  0  0  0  0  0  0
    9.0330   -0.7130   13.7280 C   0  0  0  0  0  0  0  0  0  0  0  0
    9.9230   -0.7080   14.8090 C   0  0  0  0  0  0  0  0  0  0  0  0
    9.4660   -0.6510   16.1340 C   0  0  0  0  0  0  0  0  0  0  0  0
   10.4800   -0.5550   17.2480 C   0  0  2  0  0  0  0  0  0  0  0  0
   10.4280   -1.7950   18.1400 C   0  0  0  0  0  0  0  0  0  0  0  0
   10.3440    0.6590   18.0410 N   0  0  0  0  0  0  0  0  0  0  0  0
    8.0900   -0.5860   16.3800 C   0  0  0  0  0  0  0  0  0  0  0  0
    7.1900   -0.6040   15.3190 C   0  0  0  0  0  0  0  0  0  0  0  0
    7.6580   -0.6800   14.0050 C   0  0  0  0  0  0  0  0  0  0  0  0
   10.3720   -1.8290   11.9720 C   0  0  0  0  0  0  0  0  0  0  0  0
   12.8800   -2.3740    8.9260 H   0  0  0  0  0  0  0  0  0  0  0  0
   11.4620   -3.3910    8.4570 H   0  0  0  0  0  0  0  0  0  0  0  0
   12.8810   -4.1150    9.2270 H   0  0  0  0  0  0  0  0  0  0  0  0
   10.9620   -1.0410    8.7200 H   0  0  0  0  0  0  0  0  0  0  0  0
    9.5940    0.8700    9.3330 H   0  0  0  0  0  0  0  0  0  0  0  0
    6.9630    1.0540   10.2650 H   0  0  0  0  0  0  0  0  0  0  0  0
    6.3740    4.6200   12.6460 H   0  0  0  0  0  0  0  0  0  0  0  0
    8.4470    4.1430   13.8440 H   0  0  0  0  0  0  0  0  0  0  0  0
    9.8080    2.1850   13.2870 H   0  0  0  0  0  0  0  0  0  0  0  0
   10.9940   -0.6910   14.6130 H   0  0  0  0  0  0  0  0  0  0  0  0
   11.4910   -0.5020   16.8190 H   0  0  0  0  0  0  0  0  0  0  0  0
    9.4610   -1.8930   18.6450 H   0  0  0  0  0  0  0  0  0  0  0  0
   10.5980   -2.7030   17.5510 H   0  0  0  0  0  0  0  0  0  0  0  0
   11.1990   -1.7480   18.9170 H   0  0  0  0  0  0  0  0  0  0  0  0
   10.7530    0.5830   18.9520 H   0  0  0  0  0  0  0  0  0  0  0  0
    7.7210   -0.4760   17.3970 H   0  0  0  0  0  0  0  0  0  0  0  0
    6.1240   -0.5340   15.5120 H   0  0  0  0  0  0  0  0  0  0  0  0
    6.9380   -0.6870   13.1900 H   0  0  0  0  0  0  0  0  0  0  0  0
   10.6030   -2.6030   12.7030 H   0  0  0  0  0  0  0  0  0  0  0  0
   11.1600   11.1620   15.1270 C   0  0  0  0  0  0  0  0  0  0  0  0
   12.3120   10.3780   15.4140 O   0  0  0  0  0  0  0  0  0  0  0  0
   12.1010    9.1610   16.0030 C   0  0  0  0  0  0  0  0  0  0  0  0
   10.8690    8.6240   16.3480 C   0  0  0  0  0  0  0  0  0  0  0  0
   10.8030    7.3730   16.9650 C   0  0  0  0  0  0  0  0  0  0  0  0
   11.9610    6.6240   17.2490 C   0  0  0  0  0  0  0  0  0  0  0  0
   11.7880    5.3490   17.9750 C   0  0  0  0  0  0  0  0  0  0  0  0
   11.1050    4.2580   17.4320 C   0  0  0  0  0  0  0  0  0  0  0  0
   11.0010    3.0310   18.1200 C   0  0  0  0  0  0  0  0  0  0  0  0
   10.3840    1.8920   17.4060 C   0  0  0  0  0  0  0  0  0  0  0  0
   10.0040    2.0990   16.2500 O   0  0  0  0  0  0  0  0  0  0  0  0
   11.5670    2.8910   19.3780 C   0  0  0  0  0  0  0  0  0  0  0  0
   12.2090    3.9770   19.9440 C   0  0  0  0  0  0  0  0  0  0  0  0
   12.2970    5.1950   19.2610 C   0  0  0  0  0  0  0  0  0  0  0  0
   13.2310    7.1610   16.8920 C   0  0  0  0  0  0  0  0  0  0  0  0
   14.5220    6.4720   17.1410 C   0  0  0  0  0  0  0  0  0  0  0  0
   15.5380    7.0940   17.8960 C   0  0  0  0  0  0  0  0  0  0  0  0
   16.7710    6.4650   18.1580 C   0  0  0  0  0  0  0  0  0  0  0  0
   17.8220    7.1750   19.0060 C   0  0  2  0  0  0  0  0  0  0  0  0
   19.0280    7.5690   18.1560 C   0  0  0  0  0  0  0  0  0  0  0  0
   18.2560    6.3460   20.1260 N   0  0  0  0  0  0  0  0  0  0  0  0
   16.9820    5.1770   17.6490 C   0  0  0  0  0  0  0  0  0  0  0  0
   16.0010    4.5510   16.8790 C   0  0  0  0  0  0  0  0  0  0  0  0
   14.7890    5.1970   16.6200 C   0  0  0  0  0  0  0  0  0  0  0  0
   13.2630    8.4290   16.2700 C   0  0  0  0  0  0  0  0  0  0  0  0
   10.6090   11.4080   16.0410 H   0  0  0  0  0  0  0  0  0  0  0  0
   10.5140   10.6580   14.4000 H   0  0  0  0  0  0  0  0  0  0  0  0
   11.4970   12.1020   14.6800 H   0  0  0  0  0  0  0  0  0  0  0  0
    9.9390    9.1510   16.1650 H   0  0  0  0  0  0  0  0  0  0  0  0
    9.8270    6.9860   17.2540 H   0  0  0  0  0  0  0  0  0  0  0  0
   10.6660    4.3540   16.4370 H   0  0  0  0  0  0  0  0  0  0  0  0
   11.5570    1.9760   19.9530 H   0  0  0  0  0  0  0  0  0  0  0  0
   12.6630    3.8290   20.9160 H   0  0  0  0  0  0  0  0  0  0  0  0
   12.7900    6.0460   19.7180 H   0  0  0  0  0  0  0  0  0  0  0  0
   15.3570    8.0860   18.3060 H   0  0  0  0  0  0  0  0  0  0  0  0
   17.3930    8.0920   19.4240 H   0  0  0  0  0  0  0  0  0  0  0  0
   19.5550    6.6930   17.7620 H   0  0  0  0  0  0  0  0  0  0  0  0
   18.7250    8.1940   17.3090 H   0  0  0  0  0  0  0  0  0  0  0  0
   19.7460    8.1380   18.7570 H   0  0  0  0  0  0  0  0  0  0  0  0
   19.0760    6.7000   20.5960 H   0  0  0  0  0  0  0  0  0  0  0  0
   17.9120    4.6460   17.8580 H   0  0  0  0  0  0  0  0  0  0  0  0
   16.1760    3.5520   16.4830 H   0  0  0  0  0  0  0  0  0  0  0  0
   14.0460    4.6920   16.0060 H   0  0  0  0  0  0  0  0  0  0  0  0
   14.2200    8.8630   15.9800 H   0  0  0  0  0  0  0  0  0  0  0  0
   -4.1790   -5.4330    0.2790 C   0  0  0  0  0  0  0  0  0  0  0  0
   -5.0120   -4.3120    0.5810 O   0  0  0  0  0  0  0  0  0  0  0  0
   -3.9950   -5.5240   -0.7960 H   0  0  0  0  0  0  0  0  0  0  0  0
   -4.6850   -6.3370    0.6300 H   0  0  0  0  0  0  0  0  0  0  0  0
   -3.2300   -5.3460    0.8160 H   0  0  0  0  0  0  0  0  0  0  0  0
   14.3090    7.8030   21.8340 C   0  0  0  0  0  0  0  0  0  0  0  0
   15.2420    6.6020   22.0630 C   0  0  0  0  0  0  0  0  0  0  0  0
   15.5560    6.4460   23.5420 C   0  0  0  0  0  0  0  0  0  0  0  0
   14.5710    5.3470   21.5550 C   0  0  0  0  0  0  0  0  0  0  0  0
   16.4040    6.8890   21.2640 O   0  0  0  0  0  0  0  0  0  0  0  0
   17.3670    5.9600   21.0930 C   0  0  0  0  0  0  0  0  0  0  0  0
   17.4920    4.9200   21.7230 O   0  0  0  0  0  0  0  0  0  0  0  0
   13.3530    7.6900   22.3550 H   0  0  0  0  0  0  0  0  0  0  0  0
   14.7830    8.7320   22.1700 H   0  0  0  0  0  0  0  0  0  0  0  0
   14.0990    7.9370   20.7650 H   0  0  0  0  0  0  0  0  0  0  0  0
   16.1280    7.3000   23.9180 H   0  0  0  0  0  0  0  0  0  0  0  0
   16.1620    5.5520   23.7290 H   0  0  0  0  0  0  0  0  0  0  0  0
   14.6390    6.3420   24.1310 H   0  0  0  0  0  0  0  0  0  0  0  0
   14.5750    5.3560   20.4640 H   0  0  0  0  0  0  0  0  0  0  0  0
   15.0850    4.4230   21.8340 H   0  0  0  0  0  0  0  0  0  0  0  0
   13.5580    5.2930   21.9630 H   0  0  0  0  0  0  0  0  0  0  0  0
  1  2  1  0  0  0  0
  1 26  1  0  0  0  0
  2  3  1  0  0  0  0
  3 25  2  0  0  0  0
  3  4  1  0  0  0  0
  4  5  2  0  0  0  0
  5 30  1  0  0  0  0
  5  6  1  0  0  0  0
  6  7  1  0  0  0  0
  7 14  1  0  0  0  0
  7  8  2  0  0  0  0
  8  9  1  0  0  0  0
  9 12  2  0  0  0  0
  9 10  1  0  0  0  0
 10178  1  0  0  0  0
 10 11  2  0  0  0  0
 12 13  1  0  0  0  0
 12 32  1  0  0  0  0
 13 33  1  0  0  0  0
 14 34  1  0  0  0  0
 13 14  2  0  0  0  0
 15 16  1  0  0  0  0
  6 15  2  0  0  0  0
 16 17  2  0  0  0  0
 17 18  1  0  0  0  0
 17 35  1  0  0  0  0
 18 19  1  0  0  0  0
 19 36  1  0  0  0  0
 19 21  1  0  0  0  0
 20 39  1  0  0  0  0
 19 20  1  0  0  0  0
 21 40  1  0  0  0  0
 21 54  1  0  0  0  0
 22 41  1  0  0  0  0
 18 22  2  0  0  0  0
 22 23  1  0  0  0  0
 23 24  2  0  0  0  0
 16 24  1  0  0  0  0
 15 25  1  0  0  0  0
  1 27  1  0  0  0  0
  1 28  1  0  0  0  0
  4 29  1  0  0  0  0
  8 31  1  0  0  0  0
 20 37  1  0  0  0  0
 20 38  1  0  0  0  0
 23 42  1  0  0  0  0
 24 43  1  0  0  0  0
 25 44  1  0  0  0  0
 45 70  1  0  0  0  0
 45 72  1  0  0  0  0
 45 46  1  0  0  0  0
 46 47  1  0  0  0  0
 48 73  1  0  0  0  0
 47 48  2  0  0  0  0
 48 49  1  0  0  0  0
 49 50  2  0  0  0  0
 50 59  1  0  0  0  0
 51 58  1  0  0  0  0
 50 51  1  0  0  0  0
 51 52  2  0  0  0  0
 53 56  2  0  0  0  0
 52 53  1  0  0  0  0
 53 54  1  0  0  0  0
 54 55  2  0  0  0  0
 56 57  1  0  0  0  0
 57 77  1  0  0  0  0
 57 58  2  0  0  0  0
 58 78  1  0  0  0  0
 59 69  2  0  0  0  0
 59 60  1  0  0  0  0
 60 61  2  0  0  0  0
 61 79  1  0  0  0  0
 61 62  1  0  0  0  0
 62 63  1  0  0  0  0
 63 64  1  0  0  0  0
 63 80  1  0  0  0  0
 64 82  1  0  0  0  0
 64 83  1  0  0  0  0
 63 65  1  0  0  0  0
 65 84  1  0  0  0  0
 62 66  2  0  0  0  0
 67 68  2  0  0  0  0
 66 67  1  0  0  0  0
 60 68  1  0  0  0  0
 47 69  1  0  0  0  0
 69 88  1  0  0  0  0
 45 71  1  0  0  0  0
 49 74  1  0  0  0  0
 52 75  1  0  0  0  0
 56 76  1  0  0  0  0
 64 81  1  0  0  0  0
 66 85  1  0  0  0  0
 67 86  1  0  0  0  0
 68 87  1  0  0  0  0
 89116  1  0  0  0  0
 89 90  1  0  0  0  0
 90 91  1  0  0  0  0
 91113  2  0  0  0  0
 92 93  2  0  0  0  0
 91 92  1  0  0  0  0
 93 94  1  0  0  0  0
 94 95  1  0  0  0  0
 94103  2  0  0  0  0
 95102  2  0  0  0  0
 96 97  2  0  0  0  0
 95 96  1  0  0  0  0
 97100  1  0  0  0  0
 65 98  1  0  0  0  0
 97 98  1  0  0  0  0
 98 99  2  0  0  0  0
100120  1  0  0  0  0
100101  2  0  0  0  0
101121  1  0  0  0  0
101102  1  0  0  0  0
102122  1  0  0  0  0
103104  1  0  0  0  0
104112  1  0  0  0  0
104105  2  0  0  0  0
105106  1  0  0  0  0
106110  2  0  0  0  0
106107  1  0  0  0  0
107124  1  0  0  0  0
107109  1  0  0  0  0
107108  1  0  0  0  0
108125  1  0  0  0  0
108127  1  0  0  0  0
109128  1  0  0  0  0
110129  1  0  0  0  0
111130  1  0  0  0  0
110111  1  0  0  0  0
111112  2  0  0  0  0
103113  1  0  0  0  0
113132  1  0  0  0  0
 89114  1  0  0  0  0
 89115  1  0  0  0  0
 92117  1  0  0  0  0
 93118  1  0  0  0  0
 96119  1  0  0  0  0
105123  1  0  0  0  0
108126  1  0  0  0  0
112131  1  0  0  0  0
133134  1  0  0  0  0
133158  1  0  0  0  0
134135  1  0  0  0  0
135157  2  0  0  0  0
135136  1  0  0  0  0
136137  2  0  0  0  0
137138  1  0  0  0  0
137162  1  0  0  0  0
138139  1  0  0  0  0
139146  1  0  0  0  0
139140  2  0  0  0  0
140141  1  0  0  0  0
141144  2  0  0  0  0
109142  1  0  0  0  0
141142  1  0  0  0  0
142143  2  0  0  0  0
144145  1  0  0  0  0
144164  1  0  0  0  0
145165  1  0  0  0  0
146166  1  0  0  0  0
145146  2  0  0  0  0
147148  1  0  0  0  0
138147  2  0  0  0  0
148149  2  0  0  0  0
149150  1  0  0  0  0
149167  1  0  0  0  0
150151  1  0  0  0  0
151168  1  0  0  0  0
151153  1  0  0  0  0
152171  1  0  0  0  0
151152  1  0  0  0  0
153172  1  0  0  0  0
153187  1  0  0  0  0
154173  1  0  0  0  0
150154  2  0  0  0  0
154155  1  0  0  0  0
155156  2  0  0  0  0
148156  1  0  0  0  0
147157  1  0  0  0  0
133159  1  0  0  0  0
133160  1  0  0  0  0
136161  1  0  0  0  0
140163  1  0  0  0  0
152169  1  0  0  0  0
152170  1  0  0  0  0
155174  1  0  0  0  0
156175  1  0  0  0  0
157176  1  0  0  0  0
177178  1  0  0  0  0
177180  1  0  0  0  0
177181  1  0  0  0  0
177179  1  0  0  0  0
182183  1  0  0  0  0
182190  1  0  0  0  0
182189  1  0  0  0  0
183184  1  0  0  0  0
184193  1  0  0  0  0
184192  1  0  0  0  0
184194  1  0  0  0  0
185196  1  0  0  0  0
185197  1  0  0  0  0
183185  1  0  0  0  0
183186  1  0  0  0  0
186187  1  0  0  0  0
187188  2  0  0  0  0
182191  1  0  0  0  0
185195  1  0  0  0  0
M  END
> <atom.dprop.PartialCharge>
0.107440 -0.317290 0.122460 -0.206490 -0.089100 -0.069430 -0.051510 -0.059290 -0.129860 0.643660 -0.539250 -0.072110 -0.145470 -0.083790 0.010980 -0.048780 -0.105630 -0.091260 0.150260 -0.115460 -0.562180 -0.108350 -0.132410 -0.109320 -0.149890 0.045920 0.045920 0.045920 0.141440 0.139010 0.154930 0.154580 0.140010 0.140170 0.139910 0.083500 0.048390 0.048390 0.048390 0.313270 0.138920 0.133640 0.135370 0.158190 0.113530 -0.326990 0.127690 -0.205030 -0.084700 -0.069830 -0.044220 -0.082920 -0.138600 0.674940 -0.611710 -0.074280 -0.148020 -0.105910 0.011870 -0.051190 -0.099000 -0.106880 0.154140 -0.106020 -0.561430 -0.107220 -0.144890 -0.116740 -0.146650 0.045050 0.045050 0.045050 0.140050 0.138460 0.147790 0.159100 0.132780 0.136700 0.135940 0.088490 0.046700 0.046700 0.046700 0.308680 0.142930 0.137540 0.139060 0.156680 0.113140 -0.326550 0.125400 -0.203970 -0.088070 -0.063580 -0.050730 -0.086770 -0.139630 0.688440 -0.617190 -0.072270 -0.138680 -0.096410 0.008350 -0.043560 -0.091350 -0.109250 0.150670 -0.103170 -0.567450 -0.117000 -0.132370 -0.107720 -0.145620 0.045070 0.045070 0.045070 0.139270 0.134710 0.141780 0.156120 0.141310 0.137780 0.143890 0.087840 0.043840 0.043840 0.043840 0.303950 0.125970 0.132220 0.136070 0.155760 0.111960 -0.327930 0.123960 -0.203280 -0.082700 -0.065540 -0.045360 -0.052770 -0.139270 0.682770 -0.612880 -0.102300 -0.140420 -0.086500 0.004050 -0.040910 -0.088660 -0.120280 0.154950 -0.099400 -0.543050 -0.118840 -0.132880 -0.104450 -0.147250 0.044280 0.044280 0.044280 0.140160 0.152180 0.159100 0.125720 0.138980 0.145520 0.146050 0.088990 0.046330 0.046330 0.046330 0.320150 0.126740 0.133240 0.139850 0.153710 0.121370 -0.438440 0.055200 0.055200 0.055200 -0.114090 0.189120 -0.114090 -0.114090 -0.450200 0.749640 -0.600310 0.051000 0.051000 0.051000 0.051000 0.051000 0.051000 0.051000 0.051000 0.051000

$$$$
