pop_tetramer.pdb
  -OEChem-10062417503D

197208  0     1  0  0  0  0  0999 V2000
   -2.4090   -4.9280    0.7230 C   0  0  0  0  0  0  0  0  0  0  0  0
   -2.0530   -5.6420   -0.2010 O   0  0  0  0  0  0  0  0  0  0  0  0
   -2.4080   -3.4430    0.6550 C   0  0  0  0  0  0  0  0  0  0  0  0
   -2.8320   -2.6320    1.7150 C   0  0  0  0  0  0  0  0  0  0  0  0
   -2.6960   -1.2410    1.6320 C   0  0  0  0  0  0  0  0  0  0  0  0
   -2.1430   -0.6310    0.4920 C   0  0  0  0  0  0  0  0  0  0  0  0
   -1.9570    0.8360    0.4240 C   0  0  0  0  0  0  0  0  0  0  0  0
   -0.6980    1.4490    0.1760 C   0  0  0  0  0  0  0  0  0  0  0  0
   -0.6460    2.8570    0.0710 C   0  0  0  0  0  0  0  0  0  0  0  0
   -1.7810    3.6590    0.2190 C   0  0  0  0  0  0  0  0  0  0  0  0
   -1.5580    5.0010    0.0780 O   0  0  0  0  0  0  0  0  0  0  0  0
   -2.6800    5.8640    0.2160 C   0  0  0  0  0  0  0  0  0  0  0  0
   -3.0030    3.0570    0.4910 C   0  0  0  0  0  0  0  0  0  0  0  0
   -3.0870    1.6640    0.5900 C   0  0  0  0  0  0  0  0  0  0  0  0
    0.5610    0.6790    0.0440 C   0  0  0  0  0  0  0  0  0  0  0  0
    1.3570    0.7740   -1.1080 C   0  0  0  0  0  0  0  0  0  0  0  0
    2.5320    0.0210   -1.2430 C   0  0  0  0  0  0  0  0  0  0  0  0
    2.9440   -0.8550   -0.2270 C   0  0  0  0  0  0  0  0  0  0  0  0
    2.1570   -0.9430    0.9280 C   0  0  0  0  0  0  0  0  0  0  0  0
    0.9940   -0.1790    1.0660 C   0  0  0  0  0  0  0  0  0  0  0  0
    4.2330   -1.6500   -0.3050 C   0  0  1  0  0  0  0  0  0  0  0  0
    4.2950   -2.4870   -1.4930 N   0  0  0  0  0  0  0  0  0  0  0  0
    5.4450   -0.7050   -0.2900 C   0  0  0  0  0  0  0  0  0  0  0  0
   -1.7600   -1.4580   -0.5770 C   0  0  0  0  0  0  0  0  0  0  0  0
   -1.8810   -2.8470   -0.4950 C   0  0  0  0  0  0  0  0  0  0  0  0
   -3.2430   -3.0680    2.6220 H   0  0  0  0  0  0  0  0  0  0  0  0
   -2.9980   -0.6330    2.4830 H   0  0  0  0  0  0  0  0  0  0  0  0
    0.3090    3.3470   -0.1190 H   0  0  0  0  0  0  0  0  0  0  0  0
   -2.3340    6.8900    0.0570 H   0  0  0  0  0  0  0  0  0  0  0  0
   -3.1000    5.8060    1.2250 H   0  0  0  0  0  0  0  0  0  0  0  0
   -3.4420    5.6510   -0.5420 H   0  0  0  0  0  0  0  0  0  0  0  0
   -3.9120    3.6330    0.6240 H   0  0  0  0  0  0  0  0  0  0  0  0
   -4.0610    1.2170    0.7830 H   0  0  0  0  0  0  0  0  0  0  0  0
    1.0610    1.4350   -1.9210 H   0  0  0  0  0  0  0  0  0  0  0  0
    3.1230    0.1380   -2.1480 H   0  0  0  0  0  0  0  0  0  0  0  0
    2.4470   -1.6060    1.7410 H   0  0  0  0  0  0  0  0  0  0  0  0
    0.4170   -0.2710    1.9840 H   0  0  0  0  0  0  0  0  0  0  0  0
    4.3090   -2.3080    0.5700 H   0  0  0  0  0  0  0  0  0  0  0  0
    4.0670   -2.0160   -2.3500 H   0  0  0  0  0  0  0  0  0  0  0  0
    6.3840   -1.2710   -0.2750 H   0  0  0  0  0  0  0  0  0  0  0  0
    5.4320   -0.0530    0.5890 H   0  0  0  0  0  0  0  0  0  0  0  0
    5.4710   -0.0730   -1.1850 H   0  0  0  0  0  0  0  0  0  0  0  0
   -1.3270   -1.0250   -1.4770 H   0  0  0  0  0  0  0  0  0  0  0  0
   -1.5320   -3.4610   -1.3220 H   0  0  0  0  0  0  0  0  0  0  0  0
    5.2770   -3.4650   -1.5110 C   0  0  0  0  0  0  0  0  0  0  0  0
    5.4630   -4.2220   -0.5620 O   0  0  0  0  0  0  0  0  0  0  0  0
    6.2190   -3.4710   -2.6730 C   0  0  0  0  0  0  0  0  0  0  0  0
    6.1500   -2.5420   -3.7180 C   0  0  0  0  0  0  0  0  0  0  0  0
    7.1420   -2.5110   -4.7040 C   0  0  0  0  0  0  0  0  0  0  0  0
    8.2270   -3.4000   -4.6760 C   0  0  0  0  0  0  0  0  0  0  0  0
    9.2650   -3.3450   -5.7280 C   0  0  0  0  0  0  0  0  0  0  0  0
   10.6470   -3.1650   -5.4570 C   0  0  0  0  0  0  0  0  0  0  0  0
   11.5500   -3.1730   -6.5430 C   0  0  0  0  0  0  0  0  0  0  0  0
   11.1230   -3.3310   -7.8670 C   0  0  0  0  0  0  0  0  0  0  0  0
   12.1220   -3.3210   -8.8010 O   0  0  0  0  0  0  0  0  0  0  0  0
   11.7400   -3.5070  -10.1590 C   0  0  0  0  0  0  0  0  0  0  0  0
    9.7670   -3.4750   -8.1270 C   0  0  0  0  0  0  0  0  0  0  0  0
    8.8540   -3.4850   -7.0700 C   0  0  0  0  0  0  0  0  0  0  0  0
   11.1720   -2.9400   -4.0910 C   0  0  0  0  0  0  0  0  0  0  0  0
   12.1450   -3.7850   -3.5340 C   0  0  0  0  0  0  0  0  0  0  0  0
   12.6170   -3.5860   -2.2280 C   0  0  0  0  0  0  0  0  0  0  0  0
   12.1230   -2.5360   -1.4390 C   0  0  0  0  0  0  0  0  0  0  0  0
   11.1610   -1.6860   -1.9970 C   0  0  0  0  0  0  0  0  0  0  0  0
   10.7040   -1.8770   -3.3040 C   0  0  0  0  0  0  0  0  0  0  0  0
   12.6400   -2.2440   -0.0440 C   0  0  1  0  0  0  0  0  0  0  0  0
   12.5130   -3.3880    0.8450 N   0  0  0  0  0  0  0  0  0  0  0  0
   14.1120   -1.8090   -0.1020 C   0  0  0  0  0  0  0  0  0  0  0  0
    8.2870   -4.3290   -3.6260 C   0  0  0  0  0  0  0  0  0  0  0  0
    7.3010   -4.3600   -2.6330 C   0  0  0  0  0  0  0  0  0  0  0  0
    5.3630   -1.8020   -3.7860 H   0  0  0  0  0  0  0  0  0  0  0  0
    7.0740   -1.7590   -5.4890 H   0  0  0  0  0  0  0  0  0  0  0  0
   12.6150   -3.0360   -6.3600 H   0  0  0  0  0  0  0  0  0  0  0  0
   12.6500   -3.5090  -10.7650 H   0  0  0  0  0  0  0  0  0  0  0  0
   11.1100   -2.6810  -10.5060 H   0  0  0  0  0  0  0  0  0  0  0  0
   11.2420   -4.4710  -10.3050 H   0  0  0  0  0  0  0  0  0  0  0  0
    9.3810   -3.5860   -9.1340 H   0  0  0  0  0  0  0  0  0  0  0  0
    7.7980   -3.6190   -7.3000 H   0  0  0  0  0  0  0  0  0  0  0  0
   12.5420   -4.6140   -4.1150 H   0  0  0  0  0  0  0  0  0  0  0  0
   13.3810   -4.2570   -1.8440 H   0  0  0  0  0  0  0  0  0  0  0  0
   10.7570   -0.8570   -1.4180 H   0  0  0  0  0  0  0  0  0  0  0  0
    9.9650   -1.1860   -3.7030 H   0  0  0  0  0  0  0  0  0  0  0  0
   12.0630   -1.4200    0.3930 H   0  0  0  0  0  0  0  0  0  0  0  0
   12.8410   -4.2580    0.4650 H   0  0  0  0  0  0  0  0  0  0  0  0
   14.4800   -1.5300    0.8920 H   0  0  0  0  0  0  0  0  0  0  0  0
   14.2470   -0.9490   -0.7650 H   0  0  0  0  0  0  0  0  0  0  0  0
   14.7560   -2.6210   -0.4610 H   0  0  0  0  0  0  0  0  0  0  0  0
    9.1210   -5.0240   -3.5550 H   0  0  0  0  0  0  0  0  0  0  0  0
    7.4060   -5.0610   -1.8070 H   0  0  0  0  0  0  0  0  0  0  0  0
   12.6800   -3.1410    2.1990 C   0  0  0  0  0  0  0  0  0  0  0  0
   12.1320   -2.2000    2.7650 O   0  0  0  0  0  0  0  0  0  0  0  0
   13.6890   -3.9710    2.9270 C   0  0  0  0  0  0  0  0  0  0  0  0
   14.4720   -4.9450    2.2970 C   0  0  0  0  0  0  0  0  0  0  0  0
   15.5030   -5.5830    2.9930 C   0  0  0  0  0  0  0  0  0  0  0  0
   15.7800   -5.2690    4.3320 C   0  0  0  0  0  0  0  0  0  0  0  0
   16.8870   -5.9430    5.0430 C   0  0  0  0  0  0  0  0  0  0  0  0
   17.9590   -5.2450    5.6580 C   0  0  0  0  0  0  0  0  0  0  0  0
   18.9330   -5.9940    6.3540 C   0  0  0  0  0  0  0  0  0  0  0  0
   18.8870   -7.3900    6.4300 C   0  0  0  0  0  0  0  0  0  0  0  0
   19.9020   -7.9610    7.1480 O   0  0  0  0  0  0  0  0  0  0  0  0
   19.9060   -9.3800    7.2500 C   0  0  0  0  0  0  0  0  0  0  0  0
   17.8550   -8.0690    5.7950 C   0  0  0  0  0  0  0  0  0  0  0  0
   16.8680   -7.3520    5.1160 C   0  0  0  0  0  0  0  0  0  0  0  0
   18.1120   -3.7740    5.5740 C   0  0  0  0  0  0  0  0  0  0  0  0
   18.1830   -2.9820    6.7310 C   0  0  0  0  0  0  0  0  0  0  0  0
   18.3030   -1.5880    6.6490 C   0  0  0  0  0  0  0  0  0  0  0  0
   18.3500   -0.9440    5.4040 C   0  0  0  0  0  0  0  0  0  0  0  0
   18.2810   -1.7320    4.2480 C   0  0  0  0  0  0  0  0  0  0  0  0
   18.1790   -3.1230    4.3330 C   0  0  0  0  0  0  0  0  0  0  0  0
   18.5500    0.5530    5.2620 C   0  0  1  0  0  0  0  0  0  0  0  0
   17.5360    1.3200    5.9670 N   0  0  0  0  0  0  0  0  0  0  0  0
   19.9400    0.9540    5.7800 C   0  0  0  0  0  0  0  0  0  0  0  0
   14.9840   -4.2980    4.9590 C   0  0  0  0  0  0  0  0  0  0  0  0
   13.9590   -3.6490    4.2630 C   0  0  0  0  0  0  0  0  0  0  0  0
   14.3420   -5.2120    1.2560 H   0  0  0  0  0  0  0  0  0  0  0  0
   16.1160   -6.3130    2.4670 H   0  0  0  0  0  0  0  0  0  0  0  0
   19.7620   -5.4800    6.8380 H   0  0  0  0  0  0  0  0  0  0  0  0
   20.7580   -9.6660    7.8750 H   0  0  0  0  0  0  0  0  0  0  0  0
   20.0420   -9.8440    6.2680 H   0  0  0  0  0  0  0  0  0  0  0  0
   18.9980   -9.7480    7.7390 H   0  0  0  0  0  0  0  0  0  0  0  0
   17.7790   -9.1510    5.8120 H   0  0  0  0  0  0  0  0  0  0  0  0
   16.0580   -7.9070    4.6430 H   0  0  0  0  0  0  0  0  0  0  0  0
   18.1380   -3.4500    7.7130 H   0  0  0  0  0  0  0  0  0  0  0  0
   18.3700   -1.0180    7.5720 H   0  0  0  0  0  0  0  0  0  0  0  0
   18.3160   -1.2690    3.2630 H   0  0  0  0  0  0  0  0  0  0  0  0
   18.1420   -3.6990    3.4100 H   0  0  0  0  0  0  0  0  0  0  0  0
   18.4960    0.8290    4.2020 H   0  0  0  0  0  0  0  0  0  0  0  0
   17.3440    1.0170    6.9060 H   0  0  0  0  0  0  0  0  0  0  0  0
   20.1230    2.0240    5.6310 H   0  0  0  0  0  0  0  0  0  0  0  0
   20.7320    0.4030    5.2640 H   0  0  0  0  0  0  0  0  0  0  0  0
   20.0370    0.7630    6.8560 H   0  0  0  0  0  0  0  0  0  0  0  0
   15.1770   -4.0110    5.9910 H   0  0  0  0  0  0  0  0  0  0  0  0
   13.3970   -2.8610    4.7630 H   0  0  0  0  0  0  0  0  0  0  0  0
   17.4630    2.6720    5.6680 C   0  0  0  0  0  0  0  0  0  0  0  0
   17.4880    3.0880    4.5140 O   0  0  0  0  0  0  0  0  0  0  0  0
   17.5190    3.6320    6.8120 C   0  0  0  0  0  0  0  0  0  0  0  0
   17.7030    3.2260    8.1390 C   0  0  0  0  0  0  0  0  0  0  0  0
   17.9020    4.1730    9.1480 C   0  0  0  0  0  0  0  0  0  0  0  0
   17.9280    5.5470    8.8620 C   0  0  0  0  0  0  0  0  0  0  0  0
   18.1640    6.5320    9.9390 C   0  0  0  0  0  0  0  0  0  0  0  0
   19.2170    7.4840    9.9050 C   0  0  0  0  0  0  0  0  0  0  0  0
   19.3120    8.4100   10.9710 C   0  0  0  0  0  0  0  0  0  0  0  0
   18.4200    8.4010   12.0510 C   0  0  0  0  0  0  0  0  0  0  0  0
   18.6450    9.3720   12.9850 O   0  0  0  0  0  0  0  0  0  0  0  0
   17.7580    9.4110   14.1020 C   0  0  0  0  0  0  0  0  0  0  0  0
   17.4120    7.4450   12.0910 C   0  0  0  0  0  0  0  0  0  0  0  0
   17.2870    6.5270   11.0460 C   0  0  0  0  0  0  0  0  0  0  0  0
   20.2290    7.5330    8.8210 C   0  0  0  0  0  0  0  0  0  0  0  0
   20.4330    8.6940    8.0580 C   0  0  0  0  0  0  0  0  0  0  0  0
   21.3840    8.7340    7.0250 C   0  0  0  0  0  0  0  0  0  0  0  0
   22.1650    7.6100    6.7250 C   0  0  0  0  0  0  0  0  0  0  0  0
   21.9570    6.4440    7.4780 C   0  0  0  0  0  0  0  0  0  0  0  0
   21.0170    6.4120    8.5160 C   0  0  0  0  0  0  0  0  0  0  0  0
   23.2850    7.6420    5.6980 C   0  0  1  0  0  0  0  0  0  0  0  0
   22.8340    7.9560    4.3530 N   0  0  0  0  0  0  0  0  0  0  0  0
   24.3910    8.6080    6.1410 C   0  0  0  0  0  0  0  0  0  0  0  0
   17.7330    5.9450    7.5310 C   0  0  0  0  0  0  0  0  0  0  0  0
   17.5420    5.0010    6.5170 C   0  0  0  0  0  0  0  0  0  0  0  0
   17.7410    2.1820    8.4270 H   0  0  0  0  0  0  0  0  0  0  0  0
   18.0710    3.8260   10.1660 H   0  0  0  0  0  0  0  0  0  0  0  0
   20.1100    9.1490   10.9690 H   0  0  0  0  0  0  0  0  0  0  0  0
   18.0660   10.2490   14.7380 H   0  0  0  0  0  0  0  0  0  0  0  0
   17.8410    8.4970   14.7010 H   0  0  0  0  0  0  0  0  0  0  0  0
   16.7320    9.5890   13.7870 H   0  0  0  0  0  0  0  0  0  0  0  0
   16.7010    7.3900   12.9090 H   0  0  0  0  0  0  0  0  0  0  0  0
   16.4750    5.8010   11.0870 H   0  0  0  0  0  0  0  0  0  0  0  0
   19.8450    9.5870    8.2630 H   0  0  0  0  0  0  0  0  0  0  0  0
   21.5210    9.6630    6.4760 H   0  0  0  0  0  0  0  0  0  0  0  0
   22.5410    5.5480    7.2800 H   0  0  0  0  0  0  0  0  0  0  0  0
   20.9040    5.4940    9.0880 H   0  0  0  0  0  0  0  0  0  0  0  0
   23.7230    6.6360    5.6470 H   0  0  0  0  0  0  0  0  0  0  0  0
   22.0290    8.5500    4.2090 H   0  0  0  0  0  0  0  0  0  0  0  0
   25.2220    8.6280    5.4280 H   0  0  0  0  0  0  0  0  0  0  0  0
   24.7990    8.3120    7.1120 H   0  0  0  0  0  0  0  0  0  0  0  0
   24.0210    9.6350    6.2200 H   0  0  0  0  0  0  0  0  0  0  0  0
   17.7620    7.0000    7.2630 H   0  0  0  0  0  0  0  0  0  0  0  0
   17.4500    5.3430    5.4870 H   0  0  0  0  0  0  0  0  0  0  0  0
   -2.3660   -6.6940    2.2450 C   0  0  0  0  0  0  0  0  0  0  0  0
   -2.7400   -5.3440    1.9700 O   0  0  0  0  0  0  0  0  0  0  0  0
   -2.6000   -7.3730    1.4180 H   0  0  0  0  0  0  0  0  0  0  0  0
   -2.9090   -7.0290    3.1320 H   0  0  0  0  0  0  0  0  0  0  0  0
   -1.2950   -6.7170    2.4640 H   0  0  0  0  0  0  0  0  0  0  0  0
   26.9740    6.3150    3.4340 C   0  0  0  0  0  0  0  0  0  0  0  0
   25.8200    6.8840    2.5910 C   0  0  0  0  0  0  0  0  0  0  0  0
   26.2960    8.1920    1.9510 C   0  0  0  0  0  0  0  0  0  0  0  0
   25.3990    5.8470    1.5510 C   0  0  0  0  0  0  0  0  0  0  0  0
   24.7560    7.1040    3.5450 O   0  0  0  0  0  0  0  0  0  0  0  0
   23.6010    7.7430    3.2370 C   0  0  0  0  0  0  0  0  0  0  0  0
   23.2700    8.1350    2.1330 O   0  0  0  0  0  0  0  0  0  0  0  0
   27.8440    6.0620    2.8190 H   0  0  0  0  0  0  0  0  0  0  0  0
   27.2900    7.0390    4.1960 H   0  0  0  0  0  0  0  0  0  0  0  0
   26.6580    5.4180    3.9790 H   0  0  0  0  0  0  0  0  0  0  0  0
   26.5250    8.9390    2.7200 H   0  0  0  0  0  0  0  0  0  0  0  0
   25.5360    8.6320    1.3000 H   0  0  0  0  0  0  0  0  0  0  0  0
   27.1950    8.0320    1.3450 H   0  0  0  0  0  0  0  0  0  0  0  0
   25.0270    4.9390    2.0390 H   0  0  0  0  0  0  0  0  0  0  0  0
   24.5870    6.2190    0.9190 H   0  0  0  0  0  0  0  0  0  0  0  0
   26.2360    5.5720    0.9010 H   0  0  0  0  0  0  0  0  0  0  0  0
  1178  1  0  0  0  0
  1  2  2  0  0  0  0
  1  3  1  0  0  0  0
  3  4  2  0  0  0  0
  4 26  1  0  0  0  0
  4  5  1  0  0  0  0
  5 27  1  0  0  0  0
  5  6  2  0  0  0  0
  6  7  1  0  0  0  0
  7 14  2  0  0  0  0
  7  8  1  0  0  0  0
  8  9  2  0  0  0  0
  9 10  1  0  0  0  0
 10 13  2  0  0  0  0
 11 12  1  0  0  0  0
 10 11  1  0  0  0  0
 12 30  1  0  0  0  0
 13 14  1  0  0  0  0
 13 32  1  0  0  0  0
 14 33  1  0  0  0  0
  8 15  1  0  0  0  0
 15 20  1  0  0  0  0
 15 16  2  0  0  0  0
 16 17  1  0  0  0  0
 17 18  2  0  0  0  0
 18 19  1  0  0  0  0
 19 20  2  0  0  0  0
 19 36  1  0  0  0  0
 20 37  1  0  0  0  0
 21 23  1  0  0  0  0
 18 21  1  0  0  0  0
 21 38  1  0  0  0  0
 21 22  1  0  0  0  0
 23 40  1  0  0  0  0
 23 41  1  0  0  0  0
 24 25  2  0  0  0  0
  6 24  1  0  0  0  0
  3 25  1  0  0  0  0
  9 28  1  0  0  0  0
 12 29  1  0  0  0  0
 12 31  1  0  0  0  0
 16 34  1  0  0  0  0
 17 35  1  0  0  0  0
 22 39  1  0  0  0  0
 23 42  1  0  0  0  0
 24 43  1  0  0  0  0
 25 44  1  0  0  0  0
 22 45  1  0  0  0  0
 45 46  2  0  0  0  0
 47 69  1  0  0  0  0
 45 47  1  0  0  0  0
 47 48  2  0  0  0  0
 49 50  2  0  0  0  0
 48 49  1  0  0  0  0
 50 68  1  0  0  0  0
 51 52  1  0  0  0  0
 50 51  1  0  0  0  0
 52 59  1  0  0  0  0
 53 72  1  0  0  0  0
 52 53  2  0  0  0  0
 53 54  1  0  0  0  0
 54 55  1  0  0  0  0
 55 56  1  0  0  0  0
 54 57  2  0  0  0  0
 57 58  1  0  0  0  0
 51 58  2  0  0  0  0
 59 60  2  0  0  0  0
 59 64  1  0  0  0  0
 60 61  1  0  0  0  0
 61 79  1  0  0  0  0
 61 62  2  0  0  0  0
 62 65  1  0  0  0  0
 62 63  1  0  0  0  0
 63 80  1  0  0  0  0
 63 64  2  0  0  0  0
 65 82  1  0  0  0  0
 65 66  1  0  0  0  0
 66 89  1  0  0  0  0
 65 67  1  0  0  0  0
 67 84  1  0  0  0  0
 68 87  1  0  0  0  0
 68 69  2  0  0  0  0
 69 88  1  0  0  0  0
 48 70  1  0  0  0  0
 49 71  1  0  0  0  0
 56 73  1  0  0  0  0
 56 74  1  0  0  0  0
 56 75  1  0  0  0  0
 57 76  1  0  0  0  0
 58 77  1  0  0  0  0
 60 78  1  0  0  0  0
 64 81  1  0  0  0  0
 66 83  1  0  0  0  0
 67 85  1  0  0  0  0
 67 86  1  0  0  0  0
 89 90  2  0  0  0  0
 89 91  1  0  0  0  0
 91113  1  0  0  0  0
 91 92  2  0  0  0  0
 92 93  1  0  0  0  0
 93 94  2  0  0  0  0
 94112  1  0  0  0  0
 94 95  1  0  0  0  0
 95102  2  0  0  0  0
 95 96  1  0  0  0  0
 96 97  2  0  0  0  0
 97 98  1  0  0  0  0
 97116  1  0  0  0  0
 98 99  1  0  0  0  0
 99100  1  0  0  0  0
100119  1  0  0  0  0
100117  1  0  0  0  0
101120  1  0  0  0  0
 98101  2  0  0  0  0
101102  1  0  0  0  0
 96103  1  0  0  0  0
103104  2  0  0  0  0
104122  1  0  0  0  0
104105  1  0  0  0  0
105123  1  0  0  0  0
105106  2  0  0  0  0
107108  2  0  0  0  0
106107  1  0  0  0  0
103108  1  0  0  0  0
109126  1  0  0  0  0
106109  1  0  0  0  0
109111  1  0  0  0  0
109110  1  0  0  0  0
110127  1  0  0  0  0
111130  1  0  0  0  0
112131  1  0  0  0  0
113132  1  0  0  0  0
112113  2  0  0  0  0
 92114  1  0  0  0  0
 93115  1  0  0  0  0
100118  1  0  0  0  0
102121  1  0  0  0  0
107124  1  0  0  0  0
108125  1  0  0  0  0
111128  1  0  0  0  0
111129  1  0  0  0  0
110133  1  0  0  0  0
133135  1  0  0  0  0
133134  2  0  0  0  0
135136  2  0  0  0  0
136158  1  0  0  0  0
136137  1  0  0  0  0
137159  1  0  0  0  0
137138  2  0  0  0  0
138139  1  0  0  0  0
139146  2  0  0  0  0
139140  1  0  0  0  0
140141  2  0  0  0  0
141142  1  0  0  0  0
142145  2  0  0  0  0
142143  1  0  0  0  0
143144  1  0  0  0  0
144162  1  0  0  0  0
144161  1  0  0  0  0
145164  1  0  0  0  0
146165  1  0  0  0  0
145146  1  0  0  0  0
140147  1  0  0  0  0
148166  1  0  0  0  0
147148  2  0  0  0  0
148149  1  0  0  0  0
149150  2  0  0  0  0
150151  1  0  0  0  0
151152  2  0  0  0  0
147152  1  0  0  0  0
152169  1  0  0  0  0
153170  1  0  0  0  0
153155  1  0  0  0  0
150153  1  0  0  0  0
153154  1  0  0  0  0
155174  1  0  0  0  0
155173  1  0  0  0  0
138156  1  0  0  0  0
135157  1  0  0  0  0
156157  2  0  0  0  0
141160  1  0  0  0  0
144163  1  0  0  0  0
149167  1  0  0  0  0
151168  1  0  0  0  0
154171  1  0  0  0  0
155172  1  0  0  0  0
156175  1  0  0  0  0
157176  1  0  0  0  0
177181  1  0  0  0  0
177180  1  0  0  0  0
177178  1  0  0  0  0
177179  1  0  0  0  0
182191  1  0  0  0  0
182190  1  0  0  0  0
182183  1  0  0  0  0
183186  1  0  0  0  0
183184  1  0  0  0  0
184192  1  0  0  0  0
185195  1  0  0  0  0
183185  1  0  0  0  0
186187  1  0  0  0  0
154187  1  0  0  0  0
187188  2  0  0  0  0
182189  1  0  0  0  0
184193  1  0  0  0  0
184194  1  0  0  0  0
185196  1  0  0  0  0
185197  1  0  0  0  0
M  END
> <atom.dprop.PartialCharge>
0.642570 -0.546260 -0.142000 -0.077840 -0.127710 -0.001920 -0.078290 0.010340 -0.148030 0.131540 -0.325770 0.115510 -0.207560 -0.081630 -0.039020 -0.108350 -0.122230 -0.097180 -0.122230 -0.108350 0.149310 -0.578300 -0.110020 -0.127710 -0.077840 0.155290 0.143080 0.158060 0.046480 0.046480 0.046480 0.141210 0.140040 0.139200 0.134820 0.134820 0.139200 0.085870 0.311880 0.044500 0.044500 0.044500 0.143080 0.155290 0.683770 -0.603170 -0.139640 -0.098040 -0.120750 -0.009050 -0.075790 0.006640 -0.143230 0.126520 -0.322690 0.112110 -0.204420 -0.081940 -0.038370 -0.109590 -0.123040 -0.093780 -0.123040 -0.109590 0.150590 -0.570090 -0.108030 -0.120750 -0.098040 0.142870 0.143720 0.157920 0.044930 0.044930 0.044930 0.142620 0.139920 0.139630 0.131810 0.131810 0.139630 0.082280 0.311510 0.045470 0.045470 0.045470 0.143720 0.142870 0.679570 -0.606820 -0.148010 -0.091400 -0.124050 -0.010370 -0.071270 0.009540 -0.142770 0.122570 -0.322570 0.110040 -0.204490 -0.085960 -0.049690 -0.114900 -0.118120 -0.086800 -0.118120 -0.114900 0.153280 -0.577730 -0.110030 -0.124050 -0.091400 0.148150 0.142190 0.162620 0.044480 0.044480 0.044480 0.139000 0.137770 0.132700 0.139330 0.139330 0.132700 0.087960 0.313200 0.042450 0.042450 0.042450 0.142190 0.148150 0.677340 -0.603540 -0.136910 -0.084700 -0.125880 -0.013280 -0.067290 0.007460 -0.147950 0.124250 -0.328550 0.112860 -0.202300 -0.083340 -0.043300 -0.109360 -0.119830 -0.101670 -0.119830 -0.109360 0.146210 -0.539100 -0.096520 -0.125880 -0.084700 0.147960 0.136790 0.155390 0.044930 0.044930 0.044930 0.138280 0.141670 0.133310 0.135430 0.135430 0.133310 0.090890 0.319150 0.045460 0.045460 0.045460 0.136790 0.147960 0.125620 -0.427320 0.052640 0.052640 0.052640 -0.115400 0.187950 -0.115400 -0.115400 -0.446470 0.745680 -0.582290 0.051690 0.051690 0.051690 0.051690 0.051690 0.051690 0.051690 0.051690 0.051690

$$$$
