pom_tetramer.pdb
  -OEChem-10072411233D

197208  0     1  0  0  0  0  0999 V2000
   -2.9470   -5.5760   -0.8640 C   0  0  0  0  0  0  0  0  0  0  0  0
   -1.9360   -4.6640   -1.2880 O   0  0  0  0  0  0  0  0  0  0  0  0
   -2.0510   -3.3730   -0.8460 C   0  0  0  0  0  0  0  0  0  0  0  0
   -3.1910   -2.8150   -0.2710 C   0  0  0  0  0  0  0  0  0  0  0  0
   -3.1420   -1.5290    0.2840 C   0  0  0  0  0  0  0  0  0  0  0  0
   -1.9610   -0.7660    0.2650 C   0  0  0  0  0  0  0  0  0  0  0  0
   -1.9350    0.5720    0.8940 C   0  0  0  0  0  0  0  0  0  0  0  0
   -0.9800    0.8950    1.8750 C   0  0  0  0  0  0  0  0  0  0  0  0
   -0.7810    2.2120    2.2810 C   0  0  0  0  0  0  0  0  0  0  0  0
   -1.5830    3.2210    1.7580 C   0  0  0  0  0  0  0  0  0  0  0  0
   -2.6350    2.9000    0.8900 C   0  0  0  0  0  0  0  0  0  0  0  0
   -3.5840    3.9370    0.3750 C   0  0  0  0  0  0  0  0  0  0  0  0
   -4.3970    3.7190   -0.5280 O   0  0  0  0  0  0  0  0  0  0  0  0
   -2.7960    1.5850    0.4500 C   0  0  0  0  0  0  0  0  0  0  0  0
   -0.8120   -1.3100   -0.3760 C   0  0  0  0  0  0  0  0  0  0  0  0
    0.4570   -0.5610   -0.4520 C   0  0  0  0  0  0  0  0  0  0  0  0
    1.5380   -0.8910    0.3760 C   0  0  0  0  0  0  0  0  0  0  0  0
    2.7090   -0.1280    0.3680 C   0  0  0  0  0  0  0  0  0  0  0  0
    2.8820    0.9110   -0.5540 C   0  0  0  0  0  0  0  0  0  0  0  0
    4.2120    1.6180   -0.7390 C   0  0  1  0  0  0  0  0  0  0  0  0
    4.7310    2.2710    0.5430 C   0  0  0  0  0  0  0  0  0  0  0  0
    5.2410    0.8110   -1.4260 N   0  0  0  0  0  0  0  0  0  0  0  0
    1.7860    1.2690   -1.3530 C   0  0  0  0  0  0  0  0  0  0  0  0
    0.5860    0.5530   -1.2900 C   0  0  0  0  0  0  0  0  0  0  0  0
   -0.8810   -2.6080   -0.9260 C   0  0  0  0  0  0  0  0  0  0  0  0
   -2.6200   -6.5870   -1.1250 H   0  0  0  0  0  0  0  0  0  0  0  0
   -3.0960   -5.5530    0.2220 H   0  0  0  0  0  0  0  0  0  0  0  0
   -3.8860   -5.3780   -1.3880 H   0  0  0  0  0  0  0  0  0  0  0  0
   -4.1170   -3.3740   -0.1830 H   0  0  0  0  0  0  0  0  0  0  0  0
   -4.0330   -1.1400    0.7750 H   0  0  0  0  0  0  0  0  0  0  0  0
   -0.3210    0.1270    2.2720 H   0  0  0  0  0  0  0  0  0  0  0  0
    0.0220    2.4530    2.9740 H   0  0  0  0  0  0  0  0  0  0  0  0
   -1.3640    4.2480    2.0340 H   0  0  0  0  0  0  0  0  0  0  0  0
   -3.5650    1.3560   -0.2880 H   0  0  0  0  0  0  0  0  0  0  0  0
    1.4740   -1.7480    1.0400 H   0  0  0  0  0  0  0  0  0  0  0  0
    3.5140   -0.4110    1.0430 H   0  0  0  0  0  0  0  0  0  0  0  0
    4.0390    2.4440   -1.4430 H   0  0  0  0  0  0  0  0  0  0  0  0
    5.6320    2.8610    0.3320 H   0  0  0  0  0  0  0  0  0  0  0  0
    4.9940    1.5350    1.3080 H   0  0  0  0  0  0  0  0  0  0  0  0
    3.9810    2.9470    0.9680 H   0  0  0  0  0  0  0  0  0  0  0  0
    5.9500    1.4530   -1.7580 H   0  0  0  0  0  0  0  0  0  0  0  0
    1.8500    2.1120   -2.0370 H   0  0  0  0  0  0  0  0  0  0  0  0
   -0.2550    0.8720   -1.9000 H   0  0  0  0  0  0  0  0  0  0  0  0
    0.0090   -3.0520   -1.3690 H   0  0  0  0  0  0  0  0  0  0  0  0
    8.4180   -7.9200    4.2370 C   0  0  0  0  0  0  0  0  0  0  0  0
    7.1960   -7.2360    4.5080 O   0  0  0  0  0  0  0  0  0  0  0  0
    6.8210   -6.2790    3.6050 C   0  0  0  0  0  0  0  0  0  0  0  0
    7.6340   -5.7340    2.6170 C   0  0  0  0  0  0  0  0  0  0  0  0
    7.0880   -4.8740    1.6560 C   0  0  0  0  0  0  0  0  0  0  0  0
    5.7230   -4.5180    1.6590 C   0  0  0  0  0  0  0  0  0  0  0  0
    5.2150   -3.6510    0.5710 C   0  0  0  0  0  0  0  0  0  0  0  0
    4.1630   -4.0470   -0.2740 C   0  0  0  0  0  0  0  0  0  0  0  0
    3.7180   -3.2210   -1.3120 C   0  0  0  0  0  0  0  0  0  0  0  0
    4.3190   -1.9810   -1.5260 C   0  0  0  0  0  0  0  0  0  0  0  0
    5.3350   -1.5460   -0.6700 C   0  0  0  0  0  0  0  0  0  0  0  0
    5.9350   -0.1900   -0.7760 C   0  0  0  0  0  0  0  0  0  0  0  0
    7.0620    0.0320   -0.3470 O   0  0  0  0  0  0  0  0  0  0  0  0
    5.7950   -2.3920    0.3490 C   0  0  0  0  0  0  0  0  0  0  0  0
    4.9080   -5.0240    2.7010 C   0  0  0  0  0  0  0  0  0  0  0  0
    3.4810   -4.6910    2.8240 C   0  0  0  0  0  0  0  0  0  0  0  0
    2.4950   -5.6290    2.5010 C   0  0  0  0  0  0  0  0  0  0  0  0
    1.1420   -5.3210    2.6500 C   0  0  0  0  0  0  0  0  0  0  0  0
    0.7400   -4.1130    3.2390 C   0  0  0  0  0  0  0  0  0  0  0  0
   -0.7120   -3.8030    3.5520 C   0  0  1  0  0  0  0  0  0  0  0  0
   -1.5650   -3.9300    2.3100 C   0  0  0  0  0  0  0  0  0  0  0  0
   -1.3150   -4.5130    4.6850 N   0  0  0  0  0  0  0  0  0  0  0  0
    1.7270   -3.1530    3.5030 C   0  0  0  0  0  0  0  0  0  0  0  0
    3.0780   -3.4320    3.2780 C   0  0  0  0  0  0  0  0  0  0  0  0
    5.4770   -5.8950    3.6620 C   0  0  0  0  0  0  0  0  0  0  0  0
    8.4890   -8.7700    4.9230 H   0  0  0  0  0  0  0  0  0  0  0  0
    8.4510   -8.3220    3.2180 H   0  0  0  0  0  0  0  0  0  0  0  0
    9.2740   -7.2640    4.4240 H   0  0  0  0  0  0  0  0  0  0  0  0
    8.6810   -6.0040    2.5250 H   0  0  0  0  0  0  0  0  0  0  0  0
    7.7390   -4.5110    0.8610 H   0  0  0  0  0  0  0  0  0  0  0  0
    3.6710   -5.0070   -0.1300 H   0  0  0  0  0  0  0  0  0  0  0  0
    2.8830   -3.5320   -1.9360 H   0  0  0  0  0  0  0  0  0  0  0  0
    3.9490   -1.3380   -2.3210 H   0  0  0  0  0  0  0  0  0  0  0  0
    6.6020   -2.0510    0.9970 H   0  0  0  0  0  0  0  0  0  0  0  0
    2.7740   -6.6180    2.1450 H   0  0  0  0  0  0  0  0  0  0  0  0
    0.4130   -6.0710    2.3560 H   0  0  0  0  0  0  0  0  0  0  0  0
   -0.7620   -2.7470    3.8520 H   0  0  0  0  0  0  0  0  0  0  0  0
   -2.5880   -3.5850    2.4920 H   0  0  0  0  0  0  0  0  0  0  0  0
   -1.6170   -4.9530    1.9270 H   0  0  0  0  0  0  0  0  0  0  0  0
   -1.1060   -3.3090    1.5490 H   0  0  0  0  0  0  0  0  0  0  0  0
   -2.1620   -4.0120    4.9280 H   0  0  0  0  0  0  0  0  0  0  0  0
    1.4550   -2.1680    3.8730 H   0  0  0  0  0  0  0  0  0  0  0  0
    3.8220   -2.6650    3.4800 H   0  0  0  0  0  0  0  0  0  0  0  0
    4.8420   -6.3290    4.4340 H   0  0  0  0  0  0  0  0  0  0  0  0
   -1.8730  -15.2730    3.3020 C   0  0  0  0  0  0  0  0  0  0  0  0
   -0.9900  -14.4700    2.5230 O   0  0  0  0  0  0  0  0  0  0  0  0
   -0.8790  -13.1560    2.8870 C   0  0  0  0  0  0  0  0  0  0  0  0
   -1.7210  -12.4880    3.7700 C   0  0  0  0  0  0  0  0  0  0  0  0
   -1.4120  -11.1860    4.1790 C   0  0  0  0  0  0  0  0  0  0  0  0
   -0.2670  -10.5080    3.7100 C   0  0  0  0  0  0  0  0  0  0  0  0
    0.0300   -9.1690    4.2610 C   0  0  0  0  0  0  0  0  0  0  0  0
    1.2550   -8.8730    4.8880 C   0  0  0  0  0  0  0  0  0  0  0  0
    1.5060   -7.6140    5.4380 C   0  0  0  0  0  0  0  0  0  0  0  0
    0.5250   -6.6290    5.3870 C   0  0  0  0  0  0  0  0  0  0  0  0
   -0.6820   -6.8860    4.7310 C   0  0  0  0  0  0  0  0  0  0  0  0
   -1.7030   -5.8300    4.5480 C   0  0  0  0  0  0  0  0  0  0  0  0
   -2.8750   -6.1080    4.3140 O   0  0  0  0  0  0  0  0  0  0  0  0
   -0.9330   -8.1520    4.1900 C   0  0  0  0  0  0  0  0  0  0  0  0
    0.5520  -11.1610    2.7590 C   0  0  0  0  0  0  0  0  0  0  0  0
    1.7440  -10.5290    2.1750 C   0  0  0  0  0  0  0  0  0  0  0  0
    3.0290  -10.9170    2.5680 C   0  0  0  0  0  0  0  0  0  0  0  0
    4.1590  -10.3360    1.9890 C   0  0  0  0  0  0  0  0  0  0  0  0
    4.0390   -9.4410    0.9160 C   0  0  0  0  0  0  0  0  0  0  0  0
    5.2420   -8.9110    0.1550 C   0  0  1  0  0  0  0  0  0  0  0  0
    6.2090   -8.2240    1.0930 C   0  0  0  0  0  0  0  0  0  0  0  0
    5.9400   -9.8520   -0.7280 N   0  0  0  0  0  0  0  0  0  0  0  0
    2.7520   -9.0030    0.5730 C   0  0  0  0  0  0  0  0  0  0  0  0
    1.6220   -9.5240    1.2080 C   0  0  0  0  0  0  0  0  0  0  0  0
    0.2270  -12.4790    2.3610 C   0  0  0  0  0  0  0  0  0  0  0  0
   -1.7260  -16.3180    3.0100 H   0  0  0  0  0  0  0  0  0  0  0  0
   -1.6590  -15.2020    4.3740 H   0  0  0  0  0  0  0  0  0  0  0  0
   -2.9150  -15.0080    3.0950 H   0  0  0  0  0  0  0  0  0  0  0  0
   -2.5910  -12.9660    4.2070 H   0  0  0  0  0  0  0  0  0  0  0  0
   -2.0570  -10.7120    4.9180 H   0  0  0  0  0  0  0  0  0  0  0  0
    2.0370   -9.6260    4.9530 H   0  0  0  0  0  0  0  0  0  0  0  0
    2.4720   -7.3910    5.8830 H   0  0  0  0  0  0  0  0  0  0  0  0
    0.7350   -5.6450    5.7980 H   0  0  0  0  0  0  0  0  0  0  0  0
   -1.8800   -8.3400    3.6870 H   0  0  0  0  0  0  0  0  0  0  0  0
    3.1630  -11.6900    3.3210 H   0  0  0  0  0  0  0  0  0  0  0  0
    5.1350  -10.6500    2.3500 H   0  0  0  0  0  0  0  0  0  0  0  0
    4.8770   -8.1350   -0.5320 H   0  0  0  0  0  0  0  0  0  0  0  0
    7.0220   -7.7410    0.5430 H   0  0  0  0  0  0  0  0  0  0  0  0
    6.6530   -8.9050    1.8240 H   0  0  0  0  0  0  0  0  0  0  0  0
    5.6440   -7.4730    1.6290 H   0  0  0  0  0  0  0  0  0  0  0  0
    6.5290   -9.2970   -1.3370 H   0  0  0  0  0  0  0  0  0  0  0  0
    2.6140   -8.2380   -0.1890 H   0  0  0  0  0  0  0  0  0  0  0  0
    0.6370   -9.1570    0.9300 H   0  0  0  0  0  0  0  0  0  0  0  0
    0.8840  -13.0080    1.6730 H   0  0  0  0  0  0  0  0  0  0  0  0
   10.3300  -18.5040    4.2410 C   0  0  0  0  0  0  0  0  0  0  0  0
    9.1620  -17.8760    4.7540 O   0  0  0  0  0  0  0  0  0  0  0  0
    8.5840  -16.9160    3.9700 C   0  0  0  0  0  0  0  0  0  0  0  0
    9.0100  -16.5240    2.7070 C   0  0  0  0  0  0  0  0  0  0  0  0
    8.2820  -15.5690    1.9900 C   0  0  0  0  0  0  0  0  0  0  0  0
    7.1160  -14.9780    2.5130 C   0  0  0  0  0  0  0  0  0  0  0  0
    6.3320  -14.0810    1.6440 C   0  0  0  0  0  0  0  0  0  0  0  0
    5.0120  -14.4000    1.2740 C   0  0  0  0  0  0  0  0  0  0  0  0
    4.2880  -13.5940    0.3970 C   0  0  0  0  0  0  0  0  0  0  0  0
    4.8790  -12.4570   -0.1390 C   0  0  0  0  0  0  0  0  0  0  0  0
    6.1700  -12.0890    0.2580 C   0  0  0  0  0  0  0  0  0  0  0  0
    6.7740  -10.8150   -0.1950 C   0  0  0  0  0  0  0  0  0  0  0  0
    7.9850  -10.6260   -0.1430 O   0  0  0  0  0  0  0  0  0  0  0  0
    6.8990  -12.9070    1.1290 C   0  0  0  0  0  0  0  0  0  0  0  0
    6.7140  -15.3330    3.8190 C   0  0  0  0  0  0  0  0  0  0  0  0
    5.5010  -14.8000    4.4510 C   0  0  0  0  0  0  0  0  0  0  0  0
    4.3780  -15.6190    4.5240 C   0  0  0  0  0  0  0  0  0  0  0  0
    3.2110  -15.1580    5.1120 C   0  0  0  0  0  0  0  0  0  0  0  0
    3.1580  -13.9480    5.8030 C   0  0  0  0  0  0  0  0  0  0  0  0
    1.9230  -13.5490    6.5920 C   0  0  1  0  0  0  0  0  0  0  0  0
    0.6970  -13.5490    5.7020 C   0  0  0  0  0  0  0  0  0  0  0  0
    1.6340  -14.2830    7.8280 N   0  0  0  0  0  0  0  0  0  0  0  0
    4.2540  -13.0870    5.6560 C   0  0  0  0  0  0  0  0  0  0  0  0
    5.4040  -13.4990    4.9630 C   0  0  0  0  0  0  0  0  0  0  0  0
    7.4530  -16.3110    4.5200 C   0  0  0  0  0  0  0  0  0  0  0  0
   10.6570  -19.2500    4.9710 H   0  0  0  0  0  0  0  0  0  0  0  0
   10.1230  -19.0280    3.3020 H   0  0  0  0  0  0  0  0  0  0  0  0
   11.1390  -17.7770    4.1190 H   0  0  0  0  0  0  0  0  0  0  0  0
    9.8850  -16.9570    2.2340 H   0  0  0  0  0  0  0  0  0  0  0  0
    8.6130  -15.3120    0.9840 H   0  0  0  0  0  0  0  0  0  0  0  0
    4.5340  -15.2940    1.6670 H   0  0  0  0  0  0  0  0  0  0  0  0
    3.2600  -13.8410    0.1490 H   0  0  0  0  0  0  0  0  0  0  0  0
    4.3030  -11.8270   -0.8110 H   0  0  0  0  0  0  0  0  0  0  0  0
    7.9080  -12.6180    1.4210 H   0  0  0  0  0  0  0  0  0  0  0  0
    4.4010  -16.6220    4.1030 H   0  0  0  0  0  0  0  0  0  0  0  0
    2.3310  -15.7830    5.0370 H   0  0  0  0  0  0  0  0  0  0  0  0
    2.0710  -12.5130    6.9240 H   0  0  0  0  0  0  0  0  0  0  0  0
   -0.1640  -13.1110    6.2150 H   0  0  0  0  0  0  0  0  0  0  0  0
    0.4070  -14.5520    5.3740 H   0  0  0  0  0  0  0  0  0  0  0  0
    0.9290  -12.9590    4.8230 H   0  0  0  0  0  0  0  0  0  0  0  0
    1.0860  -13.7270    8.4710 H   0  0  0  0  0  0  0  0  0  0  0  0
    4.2160  -12.0750    6.0560 H   0  0  0  0  0  0  0  0  0  0  0  0
    6.2300  -12.8040    4.8380 H   0  0  0  0  0  0  0  0  0  0  0  0
    7.1230  -16.6270    5.5090 H   0  0  0  0  0  0  0  0  0  0  0  0
   -3.9240    5.3310    2.2400 C   0  0  0  0  0  0  0  0  0  0  0  0
   -3.3890    5.1550    0.9230 O   0  0  0  0  0  0  0  0  0  0  0  0
   -4.8220    4.7230    2.4000 H   0  0  0  0  0  0  0  0  0  0  0  0
   -4.1810    6.3870    2.3730 H   0  0  0  0  0  0  0  0  0  0  0  0
   -3.1720    5.0840    2.9930 H   0  0  0  0  0  0  0  0  0  0  0  0
    2.5330  -18.4150    5.9940 C   0  0  0  0  0  0  0  0  0  0  0  0
    1.4110  -17.7900    6.8460 C   0  0  0  0  0  0  0  0  0  0  0  0
    0.1200  -17.7970    6.0230 C   0  0  0  0  0  0  0  0  0  0  0  0
    1.2910  -18.5940    8.1390 C   0  0  0  0  0  0  0  0  0  0  0  0
    1.8340  -16.4270    7.1070 O   0  0  0  0  0  0  0  0  0  0  0  0
    1.1290  -15.5600    7.8570 C   0  0  0  0  0  0  0  0  0  0  0  0
    0.1330  -15.8270    8.5140 O   0  0  0  0  0  0  0  0  0  0  0  0
    2.4100  -19.4960    5.8870 H   0  0  0  0  0  0  0  0  0  0  0  0
    2.5450  -17.9950    4.9830 H   0  0  0  0  0  0  0  0  0  0  0  0
    3.5170  -18.2130    6.4330 H   0  0  0  0  0  0  0  0  0  0  0  0
    0.2160  -17.1480    5.1430 H   0  0  0  0  0  0  0  0  0  0  0  0
   -0.7290  -17.4150    6.5970 H   0  0  0  0  0  0  0  0  0  0  0  0
   -0.1270  -18.8050    5.6760 H   0  0  0  0  0  0  0  0  0  0  0  0
    2.1920  -18.4710    8.7500 H   0  0  0  0  0  0  0  0  0  0  0  0
    0.4470  -18.2590    8.7460 H   0  0  0  0  0  0  0  0  0  0  0  0
    1.1480  -19.6580    7.9330 H   0  0  0  0  0  0  0  0  0  0  0  0
  1 27  1  0  0  0  0
  1  2  1  0  0  0  0
  2  3  1  0  0  0  0
  3  4  2  0  0  0  0
  4 29  1  0  0  0  0
  4  5  1  0  0  0  0
  5 30  1  0  0  0  0
  5  6  2  0  0  0  0
  6  7  1  0  0  0  0
  7  8  2  0  0  0  0
  8 31  1  0  0  0  0
  8  9  1  0  0  0  0
  9 32  1  0  0  0  0
 10 33  1  0  0  0  0
  9 10  2  0  0  0  0
 10 11  1  0  0  0  0
 11 12  1  0  0  0  0
 12178  1  0  0  0  0
 12 13  2  0  0  0  0
 11 14  2  0  0  0  0
  7 14  1  0  0  0  0
  6 15  1  0  0  0  0
 15 16  1  0  0  0  0
 16 17  2  0  0  0  0
 17 35  1  0  0  0  0
 17 18  1  0  0  0  0
 18 36  1  0  0  0  0
 18 19  2  0  0  0  0
 20 37  1  0  0  0  0
 19 20  1  0  0  0  0
 20 21  1  0  0  0  0
 21 40  1  0  0  0  0
 21 39  1  0  0  0  0
 22 56  1  0  0  0  0
 20 22  1  0  0  0  0
 23 24  2  0  0  0  0
 19 23  1  0  0  0  0
 16 24  1  0  0  0  0
  3 25  1  0  0  0  0
 15 25  2  0  0  0  0
  1 26  1  0  0  0  0
  1 28  1  0  0  0  0
 14 34  1  0  0  0  0
 21 38  1  0  0  0  0
 22 41  1  0  0  0  0
 23 42  1  0  0  0  0
 24 43  1  0  0  0  0
 25 44  1  0  0  0  0
 45 72  1  0  0  0  0
 45 46  1  0  0  0  0
 45 70  1  0  0  0  0
 47 69  2  0  0  0  0
 46 47  1  0  0  0  0
 47 48  1  0  0  0  0
 49 50  1  0  0  0  0
 48 49  2  0  0  0  0
 50 59  2  0  0  0  0
 50 51  1  0  0  0  0
 52 75  1  0  0  0  0
 51 52  2  0  0  0  0
 52 53  1  0  0  0  0
 53 54  2  0  0  0  0
 54 55  1  0  0  0  0
 55 58  2  0  0  0  0
 55 56  1  0  0  0  0
 56 57  2  0  0  0  0
 51 58  1  0  0  0  0
 58 78  1  0  0  0  0
 59 60  1  0  0  0  0
 59 69  1  0  0  0  0
 60 68  2  0  0  0  0
 61 62  2  0  0  0  0
 60 61  1  0  0  0  0
 62 63  1  0  0  0  0
 63 67  2  0  0  0  0
 63 64  1  0  0  0  0
 64 81  1  0  0  0  0
 64 66  1  0  0  0  0
 65 82  1  0  0  0  0
 64 65  1  0  0  0  0
 66 85  1  0  0  0  0
 67 86  1  0  0  0  0
 68 87  1  0  0  0  0
 67 68  1  0  0  0  0
 69 88  1  0  0  0  0
 45 71  1  0  0  0  0
 48 73  1  0  0  0  0
 49 74  1  0  0  0  0
 53 76  1  0  0  0  0
 54 77  1  0  0  0  0
 61 79  1  0  0  0  0
 62 80  1  0  0  0  0
 65 83  1  0  0  0  0
 65 84  1  0  0  0  0
 89115  1  0  0  0  0
 90 91  1  0  0  0  0
 89 90  1  0  0  0  0
 91 92  2  0  0  0  0
 92 93  1  0  0  0  0
 92117  1  0  0  0  0
 93118  1  0  0  0  0
 93 94  2  0  0  0  0
 94 95  1  0  0  0  0
 95 96  2  0  0  0  0
 96119  1  0  0  0  0
 96 97  1  0  0  0  0
 97120  1  0  0  0  0
 97 98  2  0  0  0  0
 98121  1  0  0  0  0
 98 99  1  0  0  0  0
 66100  1  0  0  0  0
 99100  1  0  0  0  0
100101  2  0  0  0  0
 95102  1  0  0  0  0
 99102  2  0  0  0  0
 94103  1  0  0  0  0
104105  2  0  0  0  0
103104  1  0  0  0  0
105123  1  0  0  0  0
106124  1  0  0  0  0
105106  1  0  0  0  0
106107  2  0  0  0  0
108125  1  0  0  0  0
107108  1  0  0  0  0
108109  1  0  0  0  0
109128  1  0  0  0  0
109127  1  0  0  0  0
110144  1  0  0  0  0
108110  1  0  0  0  0
107111  1  0  0  0  0
111112  2  0  0  0  0
104112  1  0  0  0  0
103113  2  0  0  0  0
 91113  1  0  0  0  0
 89114  1  0  0  0  0
 89116  1  0  0  0  0
102122  1  0  0  0  0
109126  1  0  0  0  0
110129  1  0  0  0  0
111130  1  0  0  0  0
112131  1  0  0  0  0
113132  1  0  0  0  0
133134  1  0  0  0  0
133158  1  0  0  0  0
135157  2  0  0  0  0
134135  1  0  0  0  0
135136  1  0  0  0  0
137138  1  0  0  0  0
136137  2  0  0  0  0
138147  2  0  0  0  0
138139  1  0  0  0  0
139140  2  0  0  0  0
140163  1  0  0  0  0
140141  1  0  0  0  0
142143  1  0  0  0  0
141142  2  0  0  0  0
143146  2  0  0  0  0
144145  2  0  0  0  0
143144  1  0  0  0  0
146166  1  0  0  0  0
139146  1  0  0  0  0
147148  1  0  0  0  0
147157  1  0  0  0  0
148149  2  0  0  0  0
148156  1  0  0  0  0
149150  1  0  0  0  0
150151  2  0  0  0  0
151152  1  0  0  0  0
152169  1  0  0  0  0
152154  1  0  0  0  0
153170  1  0  0  0  0
152153  1  0  0  0  0
154187  1  0  0  0  0
154173  1  0  0  0  0
151155  1  0  0  0  0
155174  1  0  0  0  0
155156  2  0  0  0  0
157176  1  0  0  0  0
133159  1  0  0  0  0
133160  1  0  0  0  0
136161  1  0  0  0  0
137162  1  0  0  0  0
141164  1  0  0  0  0
142165  1  0  0  0  0
149167  1  0  0  0  0
150168  1  0  0  0  0
153171  1  0  0  0  0
153172  1  0  0  0  0
156175  1  0  0  0  0
177180  1  0  0  0  0
177179  1  0  0  0  0
177181  1  0  0  0  0
177178  1  0  0  0  0
182191  1  0  0  0  0
182183  1  0  0  0  0
183186  1  0  0  0  0
183185  1  0  0  0  0
184193  1  0  0  0  0
183184  1  0  0  0  0
185196  1  0  0  0  0
185195  1  0  0  0  0
186187  1  0  0  0  0
187188  2  0  0  0  0
182189  1  0  0  0  0
182190  1  0  0  0  0
184192  1  0  0  0  0
184194  1  0  0  0  0
185197  1  0  0  0  0
M  END
> <atom.dprop.PartialCharge>
0.107700 -0.318720 0.123260 -0.202760 -0.084310 -0.074860 -0.044890 -0.085490 -0.145650 -0.073990 -0.131920 0.646890 -0.544830 -0.062800 0.006520 -0.040530 -0.110890 -0.123400 -0.094990 0.150690 -0.108970 -0.571100 -0.123400 -0.110890 -0.145210 0.045680 0.045680 0.045680 0.144390 0.141670 0.140890 0.142140 0.153760 0.154600 0.138090 0.137580 0.090120 0.044860 0.044860 0.044860 0.310990 0.137580 0.138090 0.159310 0.113130 -0.326280 0.125610 -0.206010 -0.085590 -0.071070 -0.042270 -0.090580 -0.140500 -0.074660 -0.142580 0.673640 -0.605730 -0.094260 0.008500 -0.042030 -0.111670 -0.120390 -0.090310 0.152310 -0.112990 -0.569110 -0.120390 -0.111670 -0.146160 0.045500 0.045500 0.045500 0.141250 0.138620 0.140710 0.138760 0.155630 0.138570 0.136730 0.136540 0.085460 0.044470 0.044470 0.044470 0.313530 0.136540 0.136730 0.158050 0.115560 -0.326790 0.153560 -0.192980 -0.080410 -0.076120 -0.038210 -0.091950 -0.142860 -0.076080 -0.145440 0.676140 -0.613070 -0.090220 0.005160 -0.034980 -0.119980 -0.120780 -0.101950 0.164340 -0.114290 -0.563850 -0.120780 -0.119980 -0.141270 0.043170 0.043170 0.043170 0.136780 0.136830 0.139150 0.136870 0.154880 0.144860 0.137720 0.143980 0.064280 0.050490 0.050490 0.050490 0.315290 0.143980 0.137720 0.144200 0.112710 -0.326160 0.125070 -0.204080 -0.083210 -0.066410 -0.045440 -0.095820 -0.146020 -0.103100 -0.135830 0.676290 -0.618740 -0.060450 0.006490 -0.036980 -0.113070 -0.114420 -0.112090 0.157270 -0.100230 -0.548130 -0.114420 -0.113070 -0.146040 0.044710 0.044710 0.044710 0.140020 0.140930 0.134950 0.134980 0.137860 0.162290 0.138300 0.135480 0.087640 0.045910 0.045910 0.045910 0.319910 0.135480 0.138300 0.155170 0.125310 -0.436530 0.052860 0.052860 0.052860 -0.116460 0.188240 -0.116460 -0.116460 -0.450550 0.750500 -0.596620 0.052290 0.052290 0.052290 0.052290 0.052290 0.052290 0.052290 0.052290 0.052290

$$$$
