pom_tetramer.pdb
 OpenBabel10072411193D

197208  0  0  1  0  0  0  0  0999 V2000
   -2.9470   -5.5760   -0.8640 C   0  0  0  0  0  0  0  0  0  0  0  0
   -1.9360   -4.6640   -1.2880 O   0  0  0  0  0  0  0  0  0  0  0  0
   -2.0510   -3.3730   -0.8460 C   0  0  0  0  0  0  0  0  0  0  0  0
   -3.1910   -2.8150   -0.2710 C   0  0  0  0  0  0  0  0  0  0  0  0
   -3.1420   -1.5290    0.2840 C   0  0  0  0  0  0  0  0  0  0  0  0
   -1.9610   -0.7660    0.2650 C   0  0  0  0  0  0  0  0  0  0  0  0
   -1.9350    0.5720    0.8940 C   0  0  0  0  0  0  0  0  0  0  0  0
   -0.9800    0.8950    1.8750 C   0  0  0  0  0  0  0  0  0  0  0  0
   -0.7810    2.2120    2.2810 C   0  0  0  0  0  0  0  0  0  0  0  0
   -1.5830    3.2210    1.7580 C   0  0  0  0  0  0  0  0  0  0  0  0
   -2.6350    2.9000    0.8900 C   0  0  0  0  0  0  0  0  0  0  0  0
   -3.5840    3.9370    0.3750 C   0  0  0  0  0  0  0  0  0  0  0  0
   -4.3970    3.7190   -0.5280 O   0  0  0  0  0  0  0  0  0  0  0  0
   -2.7960    1.5850    0.4500 C   0  0  0  0  0  0  0  0  0  0  0  0
   -0.8120   -1.3100   -0.3760 C   0  0  0  0  0  0  0  0  0  0  0  0
    0.4570   -0.5610   -0.4520 C   0  0  0  0  0  0  0  0  0  0  0  0
    1.5380   -0.8910    0.3760 C   0  0  0  0  0  0  0  0  0  0  0  0
    2.7090   -0.1280    0.3680 C   0  0  0  0  0  0  0  0  0  0  0  0
    2.8820    0.9110   -0.5540 C   0  0  0  0  0  0  0  0  0  0  0  0
    4.2120    1.6180   -0.7390 C   0  0  1  0  0  0  0  0  0  0  0  0
    4.7310    2.2710    0.5430 C   0  0  0  0  0  0  0  0  0  0  0  0
    5.2410    0.8110   -1.4260 N   0  0  0  0  0  0  0  0  0  0  0  0
    1.7860    1.2690   -1.3530 C   0  0  0  0  0  0  0  0  0  0  0  0
    0.5860    0.5530   -1.2900 C   0  0  0  0  0  0  0  0  0  0  0  0
   -0.8810   -2.6080   -0.9260 C   0  0  0  0  0  0  0  0  0  0  0  0
   -2.6200   -6.5870   -1.1250 H   0  0  0  0  0  0  0  0  0  0  0  0
   -3.0960   -5.5530    0.2220 H   0  0  0  0  0  0  0  0  0  0  0  0
   -3.8860   -5.3780   -1.3880 H   0  0  0  0  0  0  0  0  0  0  0  0
   -4.1170   -3.3740   -0.1830 H   0  0  0  0  0  0  0  0  0  0  0  0
   -4.0330   -1.1400    0.7750 H   0  0  0  0  0  0  0  0  0  0  0  0
   -0.3210    0.1270    2.2720 H   0  0  0  0  0  0  0  0  0  0  0  0
    0.0220    2.4530    2.9740 H   0  0  0  0  0  0  0  0  0  0  0  0
   -1.3640    4.2480    2.0340 H   0  0  0  0  0  0  0  0  0  0  0  0
   -3.5650    1.3560   -0.2880 H   0  0  0  0  0  0  0  0  0  0  0  0
    1.4740   -1.7480    1.0400 H   0  0  0  0  0  0  0  0  0  0  0  0
    3.5140   -0.4110    1.0430 H   0  0  0  0  0  0  0  0  0  0  0  0
    4.0390    2.4440   -1.4430 H   0  0  0  0  0  0  0  0  0  0  0  0
    5.6320    2.8610    0.3320 H   0  0  0  0  0  0  0  0  0  0  0  0
    4.9940    1.5350    1.3080 H   0  0  0  0  0  0  0  0  0  0  0  0
    3.9810    2.9470    0.9680 H   0  0  0  0  0  0  0  0  0  0  0  0
    5.9500    1.4530   -1.7580 H   0  0  0  0  0  0  0  0  0  0  0  0
    1.8500    2.1120   -2.0370 H   0  0  0  0  0  0  0  0  0  0  0  0
   -0.2550    0.8720   -1.9000 H   0  0  0  0  0  0  0  0  0  0  0  0
    0.0090   -3.0520   -1.3690 H   0  0  0  0  0  0  0  0  0  0  0  0
    8.4180   -7.9200    4.2370 C   0  0  0  0  0  0  0  0  0  0  0  0
    7.1960   -7.2360    4.5080 O   0  0  0  0  0  0  0  0  0  0  0  0
    6.8210   -6.2790    3.6050 C   0  0  0  0  0  0  0  0  0  0  0  0
    7.6340   -5.7340    2.6170 C   0  0  0  0  0  0  0  0  0  0  0  0
    7.0880   -4.8740    1.6560 C   0  0  0  0  0  0  0  0  0  0  0  0
    5.7230   -4.5180    1.6590 C   0  0  0  0  0  0  0  0  0  0  0  0
    5.2150   -3.6510    0.5710 C   0  0  0  0  0  0  0  0  0  0  0  0
    4.1630   -4.0470   -0.2740 C   0  0  0  0  0  0  0  0  0  0  0  0
    3.7180   -3.2210   -1.3120 C   0  0  0  0  0  0  0  0  0  0  0  0
    4.3190   -1.9810   -1.5260 C   0  0  0  0  0  0  0  0  0  0  0  0
    5.3350   -1.5460   -0.6700 C   0  0  0  0  0  0  0  0  0  0  0  0
    5.9350   -0.1900   -0.7760 C   0  0  0  0  0  0  0  0  0  0  0  0
    7.0620    0.0320   -0.3470 O   0  0  0  0  0  0  0  0  0  0  0  0
    5.7950   -2.3920    0.3490 C   0  0  0  0  0  0  0  0  0  0  0  0
    4.9080   -5.0240    2.7010 C   0  0  0  0  0  0  0  0  0  0  0  0
    3.4810   -4.6910    2.8240 C   0  0  0  0  0  0  0  0  0  0  0  0
    2.4950   -5.6290    2.5010 C   0  0  0  0  0  0  0  0  0  0  0  0
    1.1420   -5.3210    2.6500 C   0  0  0  0  0  0  0  0  0  0  0  0
    0.7400   -4.1130    3.2390 C   0  0  0  0  0  0  0  0  0  0  0  0
   -0.7120   -3.8030    3.5520 C   0  0  1  0  0  0  0  0  0  0  0  0
   -1.5650   -3.9300    2.3100 C   0  0  0  0  0  0  0  0  0  0  0  0
   -1.3150   -4.5130    4.6850 N   0  0  0  0  0  0  0  0  0  0  0  0
    1.7270   -3.1530    3.5030 C   0  0  0  0  0  0  0  0  0  0  0  0
    3.0780   -3.4320    3.2780 C   0  0  0  0  0  0  0  0  0  0  0  0
    5.4770   -5.8950    3.6620 C   0  0  0  0  0  0  0  0  0  0  0  0
    8.4890   -8.7700    4.9230 H   0  0  0  0  0  0  0  0  0  0  0  0
    8.4510   -8.3220    3.2180 H   0  0  0  0  0  0  0  0  0  0  0  0
    9.2740   -7.2640    4.4240 H   0  0  0  0  0  0  0  0  0  0  0  0
    8.6810   -6.0040    2.5250 H   0  0  0  0  0  0  0  0  0  0  0  0
    7.7390   -4.5110    0.8610 H   0  0  0  0  0  0  0  0  0  0  0  0
    3.6710   -5.0070   -0.1300 H   0  0  0  0  0  0  0  0  0  0  0  0
    2.8830   -3.5320   -1.9360 H   0  0  0  0  0  0  0  0  0  0  0  0
    3.9490   -1.3380   -2.3210 H   0  0  0  0  0  0  0  0  0  0  0  0
    6.6020   -2.0510    0.9970 H   0  0  0  0  0  0  0  0  0  0  0  0
    2.7740   -6.6180    2.1450 H   0  0  0  0  0  0  0  0  0  0  0  0
    0.4130   -6.0710    2.3560 H   0  0  0  0  0  0  0  0  0  0  0  0
   -0.7620   -2.7470    3.8520 H   0  0  0  0  0  0  0  0  0  0  0  0
   -2.5880   -3.5850    2.4920 H   0  0  0  0  0  0  0  0  0  0  0  0
   -1.6170   -4.9530    1.9270 H   0  0  0  0  0  0  0  0  0  0  0  0
   -1.1060   -3.3090    1.5490 H   0  0  0  0  0  0  0  0  0  0  0  0
   -2.1620   -4.0120    4.9280 H   0  0  0  0  0  0  0  0  0  0  0  0
    1.4550   -2.1680    3.8730 H   0  0  0  0  0  0  0  0  0  0  0  0
    3.8220   -2.6650    3.4800 H   0  0  0  0  0  0  0  0  0  0  0  0
    4.8420   -6.3290    4.4340 H   0  0  0  0  0  0  0  0  0  0  0  0
   -1.8730  -15.2730    3.3020 C   0  0  0  0  0  0  0  0  0  0  0  0
   -0.9900  -14.4700    2.5230 O   0  0  0  0  0  0  0  0  0  0  0  0
   -0.8790  -13.1560    2.8870 C   0  0  0  0  0  0  0  0  0  0  0  0
   -1.7210  -12.4880    3.7700 C   0  0  0  0  0  0  0  0  0  0  0  0
   -1.4120  -11.1860    4.1790 C   0  0  0  0  0  0  0  0  0  0  0  0
   -0.2670  -10.5080    3.7100 C   0  0  0  0  0  0  0  0  0  0  0  0
    0.0300   -9.1690    4.2610 C   0  0  0  0  0  0  0  0  0  0  0  0
    1.2550   -8.8730    4.8880 C   0  0  0  0  0  0  0  0  0  0  0  0
    1.5060   -7.6140    5.4380 C   0  0  0  0  0  0  0  0  0  0  0  0
    0.5250   -6.6290    5.3870 C   0  0  0  0  0  0  0  0  0  0  0  0
   -0.6820   -6.8860    4.7310 C   0  0  0  0  0  0  0  0  0  0  0  0
   -1.7030   -5.8300    4.5480 C   0  0  0  0  0  0  0  0  0  0  0  0
   -2.8750   -6.1080    4.3140 O   0  0  0  0  0  0  0  0  0  0  0  0
   -0.9330   -8.1520    4.1900 C   0  0  0  0  0  0  0  0  0  0  0  0
    0.5520  -11.1610    2.7590 C   0  0  0  0  0  0  0  0  0  0  0  0
    1.7440  -10.5290    2.1750 C   0  0  0  0  0  0  0  0  0  0  0  0
    3.0290  -10.9170    2.5680 C   0  0  0  0  0  0  0  0  0  0  0  0
    4.1590  -10.3360    1.9890 C   0  0  0  0  0  0  0  0  0  0  0  0
    4.0390   -9.4410    0.9160 C   0  0  0  0  0  0  0  0  0  0  0  0
    5.2420   -8.9110    0.1550 C   0  0  1  0  0  0  0  0  0  0  0  0
    6.2090   -8.2240    1.0930 C   0  0  0  0  0  0  0  0  0  0  0  0
    5.9400   -9.8520   -0.7280 N   0  0  0  0  0  0  0  0  0  0  0  0
    2.7520   -9.0030    0.5730 C   0  0  0  0  0  0  0  0  0  0  0  0
    1.6220   -9.5240    1.2080 C   0  0  0  0  0  0  0  0  0  0  0  0
    0.2270  -12.4790    2.3610 C   0  0  0  0  0  0  0  0  0  0  0  0
   -1.7260  -16.3180    3.0100 H   0  0  0  0  0  0  0  0  0  0  0  0
   -1.6590  -15.2020    4.3740 H   0  0  0  0  0  0  0  0  0  0  0  0
   -2.9150  -15.0080    3.0950 H   0  0  0  0  0  0  0  0  0  0  0  0
   -2.5910  -12.9660    4.2070 H   0  0  0  0  0  0  0  0  0  0  0  0
   -2.0570  -10.7120    4.9180 H   0  0  0  0  0  0  0  0  0  0  0  0
    2.0370   -9.6260    4.9530 H   0  0  0  0  0  0  0  0  0  0  0  0
    2.4720   -7.3910    5.8830 H   0  0  0  0  0  0  0  0  0  0  0  0
    0.7350   -5.6450    5.7980 H   0  0  0  0  0  0  0  0  0  0  0  0
   -1.8800   -8.3400    3.6870 H   0  0  0  0  0  0  0  0  0  0  0  0
    3.1630  -11.6900    3.3210 H   0  0  0  0  0  0  0  0  0  0  0  0
    5.1350  -10.6500    2.3500 H   0  0  0  0  0  0  0  0  0  0  0  0
    4.8770   -8.1350   -0.5320 H   0  0  0  0  0  0  0  0  0  0  0  0
    7.0220   -7.7410    0.5430 H   0  0  0  0  0  0  0  0  0  0  0  0
    6.6530   -8.9050    1.8240 H   0  0  0  0  0  0  0  0  0  0  0  0
    5.6440   -7.4730    1.6290 H   0  0  0  0  0  0  0  0  0  0  0  0
    6.5290   -9.2970   -1.3370 H   0  0  0  0  0  0  0  0  0  0  0  0
    2.6140   -8.2380   -0.1890 H   0  0  0  0  0  0  0  0  0  0  0  0
    0.6370   -9.1570    0.9300 H   0  0  0  0  0  0  0  0  0  0  0  0
    0.8840  -13.0080    1.6730 H   0  0  0  0  0  0  0  0  0  0  0  0
   10.3300  -18.5040    4.2410 C   0  0  0  0  0  0  0  0  0  0  0  0
    9.1620  -17.8760    4.7540 O   0  0  0  0  0  0  0  0  0  0  0  0
    8.5840  -16.9160    3.9700 C   0  0  0  0  0  0  0  0  0  0  0  0
    9.0100  -16.5240    2.7070 C   0  0  0  0  0  0  0  0  0  0  0  0
    8.2820  -15.5690    1.9900 C   0  0  0  0  0  0  0  0  0  0  0  0
    7.1160  -14.9780    2.5130 C   0  0  0  0  0  0  0  0  0  0  0  0
    6.3320  -14.0810    1.6440 C   0  0  0  0  0  0  0  0  0  0  0  0
    5.0120  -14.4000    1.2740 C   0  0  0  0  0  0  0  0  0  0  0  0
    4.2880  -13.5940    0.3970 C   0  0  0  0  0  0  0  0  0  0  0  0
    4.8790  -12.4570   -0.1390 C   0  0  0  0  0  0  0  0  0  0  0  0
    6.1700  -12.0890    0.2580 C   0  0  0  0  0  0  0  0  0  0  0  0
    6.7740  -10.8150   -0.1950 C   0  0  0  0  0  0  0  0  0  0  0  0
    7.9850  -10.6260   -0.1430 O   0  0  0  0  0  0  0  0  0  0  0  0
    6.8990  -12.9070    1.1290 C   0  0  0  0  0  0  0  0  0  0  0  0
    6.7140  -15.3330    3.8190 C   0  0  0  0  0  0  0  0  0  0  0  0
    5.5010  -14.8000    4.4510 C   0  0  0  0  0  0  0  0  0  0  0  0
    4.3780  -15.6190    4.5240 C   0  0  0  0  0  0  0  0  0  0  0  0
    3.2110  -15.1580    5.1120 C   0  0  0  0  0  0  0  0  0  0  0  0
    3.1580  -13.9480    5.8030 C   0  0  0  0  0  0  0  0  0  0  0  0
    1.9230  -13.5490    6.5920 C   0  0  1  0  0  0  0  0  0  0  0  0
    0.6970  -13.5490    5.7020 C   0  0  0  0  0  0  0  0  0  0  0  0
    1.6340  -14.2830    7.8280 N   0  0  0  0  0  0  0  0  0  0  0  0
    4.2540  -13.0870    5.6560 C   0  0  0  0  0  0  0  0  0  0  0  0
    5.4040  -13.4990    4.9630 C   0  0  0  0  0  0  0  0  0  0  0  0
    7.4530  -16.3110    4.5200 C   0  0  0  0  0  0  0  0  0  0  0  0
   10.6570  -19.2500    4.9710 H   0  0  0  0  0  0  0  0  0  0  0  0
   10.1230  -19.0280    3.3020 H   0  0  0  0  0  0  0  0  0  0  0  0
   11.1390  -17.7770    4.1190 H   0  0  0  0  0  0  0  0  0  0  0  0
    9.8850  -16.9570    2.2340 H   0  0  0  0  0  0  0  0  0  0  0  0
    8.6130  -15.3120    0.9840 H   0  0  0  0  0  0  0  0  0  0  0  0
    4.5340  -15.2940    1.6670 H   0  0  0  0  0  0  0  0  0  0  0  0
    3.2600  -13.8410    0.1490 H   0  0  0  0  0  0  0  0  0  0  0  0
    4.3030  -11.8270   -0.8110 H   0  0  0  0  0  0  0  0  0  0  0  0
    7.9080  -12.6180    1.4210 H   0  0  0  0  0  0  0  0  0  0  0  0
    4.4010  -16.6220    4.1030 H   0  0  0  0  0  0  0  0  0  0  0  0
    2.3310  -15.7830    5.0370 H   0  0  0  0  0  0  0  0  0  0  0  0
    2.0710  -12.5130    6.9240 H   0  0  0  0  0  0  0  0  0  0  0  0
   -0.1640  -13.1110    6.2150 H   0  0  0  0  0  0  0  0  0  0  0  0
    0.4070  -14.5520    5.3740 H   0  0  0  0  0  0  0  0  0  0  0  0
    0.9290  -12.9590    4.8230 H   0  0  0  0  0  0  0  0  0  0  0  0
    1.0860  -13.7270    8.4710 H   0  0  0  0  0  0  0  0  0  0  0  0
    4.2160  -12.0750    6.0560 H   0  0  0  0  0  0  0  0  0  0  0  0
    6.2300  -12.8040    4.8380 H   0  0  0  0  0  0  0  0  0  0  0  0
    7.1230  -16.6270    5.5090 H   0  0  0  0  0  0  0  0  0  0  0  0
   -3.9240    5.3310    2.2400 C   0  0  0  0  0  0  0  0  0  0  0  0
   -3.3890    5.1550    0.9230 O   0  0  0  0  0  0  0  0  0  0  0  0
   -4.8220    4.7230    2.4000 H   0  0  0  0  0  0  0  0  0  0  0  0
   -4.1810    6.3870    2.3730 H   0  0  0  0  0  0  0  0  0  0  0  0
   -3.1720    5.0840    2.9930 H   0  0  0  0  0  0  0  0  0  0  0  0
    2.5330  -18.4150    5.9940 C   0  0  0  0  0  0  0  0  0  0  0  0
    1.4110  -17.7900    6.8460 C   0  0  0  0  0  0  0  0  0  0  0  0
    0.1200  -17.7970    6.0230 C   0  0  0  0  0  0  0  0  0  0  0  0
    1.2910  -18.5940    8.1390 C   0  0  0  0  0  0  0  0  0  0  0  0
    1.8340  -16.4270    7.1070 O   0  0  0  0  0  0  0  0  0  0  0  0
    1.1290  -15.5600    7.8570 C   0  0  0  0  0  0  0  0  0  0  0  0
    0.1330  -15.8270    8.5140 O   0  0  0  0  0  0  0  0  0  0  0  0
    2.4100  -19.4960    5.8870 H   0  0  0  0  0  0  0  0  0  0  0  0
    2.5450  -17.9950    4.9830 H   0  0  0  0  0  0  0  0  0  0  0  0
    3.5170  -18.2130    6.4330 H   0  0  0  0  0  0  0  0  0  0  0  0
    0.2160  -17.1480    5.1430 H   0  0  0  0  0  0  0  0  0  0  0  0
   -0.7290  -17.4150    6.5970 H   0  0  0  0  0  0  0  0  0  0  0  0
   -0.1270  -18.8050    5.6760 H   0  0  0  0  0  0  0  0  0  0  0  0
    2.1920  -18.4710    8.7500 H   0  0  0  0  0  0  0  0  0  0  0  0
    0.4470  -18.2590    8.7460 H   0  0  0  0  0  0  0  0  0  0  0  0
    1.1480  -19.6580    7.9330 H   0  0  0  0  0  0  0  0  0  0  0  0
  1 27  1  0  0  0  0
  2  1  1  0  0  0  0
  2  3  1  0  0  0  0
  3  4  1  0  0  0  0
  4 29  1  0  0  0  0
  4  5  2  0  0  0  0
  5 30  1  0  0  0  0
  6  5  1  0  0  0  0
  6  7  1  0  0  0  0
  7  8  1  0  0  0  0
  8 31  1  0  0  0  0
  8  9  2  0  0  0  0
  9 32  1  0  0  0  0
 10 33  1  0  0  0  0
 10  9  1  0  0  0  0
 11 10  2  0  0  0  0
 12 11  1  0  0  0  0
 12178  1  0  0  0  0
 13 12  2  0  0  0  0
 14 11  1  0  0  0  0
 14  7  2  0  0  0  0
 15  6  2  0  0  0  0
 16 15  1  0  0  0  0
 16 17  1  0  0  0  0
 17 35  1  0  0  0  0
 18 17  2  0  0  0  0
 18 36  1  0  0  0  0
 19 18  1  0  0  0  0
 20 37  1  6  0  0  0
 20 19  1  0  0  0  0
 20 21  1  0  0  0  0
 21 40  1  0  0  0  0
 21 39  1  0  0  0  0
 22 56  1  0  0  0  0
 22 20  1  0  0  0  0
 23 24  1  0  0  0  0
 23 19  2  0  0  0  0
 24 16  2  0  0  0  0
 25  3  2  0  0  0  0
 25 15  1  0  0  0  0
 26  1  1  0  0  0  0
 28  1  1  0  0  0  0
 34 14  1  0  0  0  0
 38 21  1  0  0  0  0
 41 22  1  0  0  0  0
 42 23  1  0  0  0  0
 43 24  1  0  0  0  0
 44 25  1  0  0  0  0
 45 72  1  0  0  0  0
 45 46  1  0  0  0  0
 45 70  1  0  0  0  0
 47 69  1  0  0  0  0
 47 46  1  0  0  0  0
 48 47  2  0  0  0  0
 49 50  2  0  0  0  0
 49 48  1  0  0  0  0
 50 59  1  0  0  0  0
 51 50  1  0  0  0  0
 52 75  1  0  0  0  0
 52 51  2  0  0  0  0
 53 52  1  0  0  0  0
 54 53  2  0  0  0  0
 54 55  1  0  0  0  0
 55 58  2  0  0  0  0
 56 55  1  0  0  0  0
 56 57  2  0  0  0  0
 58 51  1  0  0  0  0
 58 78  1  0  0  0  0
 59 60  1  0  0  0  0
 59 69  2  0  0  0  0
 60 68  1  0  0  0  0
 61 62  1  0  0  0  0
 61 60  2  0  0  0  0
 62 63  2  0  0  0  0
 63 67  1  0  0  0  0
 63 64  1  0  0  0  0
 64 81  1  1  0  0  0
 64 66  1  0  0  0  0
 65 82  1  0  0  0  0
 65 64  1  0  0  0  0
 66 85  1  0  0  0  0
 67 86  1  0  0  0  0
 68 87  1  0  0  0  0
 68 67  2  0  0  0  0
 69 88  1  0  0  0  0
 71 45  1  0  0  0  0
 73 48  1  0  0  0  0
 74 49  1  0  0  0  0
 76 53  1  0  0  0  0
 77 54  1  0  0  0  0
 79 61  1  0  0  0  0
 80 62  1  0  0  0  0
 83 65  1  0  0  0  0
 84 65  1  0  0  0  0
 89115  1  0  0  0  0
 90 91  1  0  0  0  0
 90 89  1  0  0  0  0
 91 92  1  0  0  0  0
 92 93  2  0  0  0  0
 92117  1  0  0  0  0
 93118  1  0  0  0  0
 94 93  1  0  0  0  0
 94 95  1  0  0  0  0
 95 96  1  0  0  0  0
 96119  1  0  0  0  0
 96 97  2  0  0  0  0
 97120  1  0  0  0  0
 98 97  1  0  0  0  0
 98121  1  0  0  0  0
 99 98  2  0  0  0  0
100 66  1  0  0  0  0
100 99  1  0  0  0  0
101100  2  0  0  0  0
102 95  2  0  0  0  0
102 99  1  0  0  0  0
103 94  2  0  0  0  0
104105  1  0  0  0  0
104103  1  0  0  0  0
105123  1  0  0  0  0
106124  1  0  0  0  0
106105  2  0  0  0  0
107106  1  0  0  0  0
108125  1  6  0  0  0
108107  1  0  0  0  0
108109  1  0  0  0  0
109128  1  0  0  0  0
109127  1  0  0  0  0
110144  1  0  0  0  0
110108  1  0  0  0  0
111107  2  0  0  0  0
111112  1  0  0  0  0
112104  2  0  0  0  0
113103  1  0  0  0  0
113 91  2  0  0  0  0
114 89  1  0  0  0  0
116 89  1  0  0  0  0
122102  1  0  0  0  0
126109  1  0  0  0  0
129110  1  0  0  0  0
130111  1  0  0  0  0
131112  1  0  0  0  0
132113  1  0  0  0  0
133134  1  0  0  0  0
133158  1  0  0  0  0
135157  1  0  0  0  0
135134  1  0  0  0  0
136135  2  0  0  0  0
137138  2  0  0  0  0
137136  1  0  0  0  0
138147  1  0  0  0  0
139138  1  0  0  0  0
140139  1  0  0  0  0
140163  1  0  0  0  0
141140  2  0  0  0  0
142143  2  0  0  0  0
142141  1  0  0  0  0
143146  1  0  0  0  0
144145  2  0  0  0  0
144143  1  0  0  0  0
146166  1  0  0  0  0
146139  2  0  0  0  0
147148  1  0  0  0  0
147157  2  0  0  0  0
148149  2  0  0  0  0
148156  1  0  0  0  0
149150  1  0  0  0  0
150151  2  0  0  0  0
151152  1  0  0  0  0
152169  1  1  0  0  0
152154  1  0  0  0  0
153170  1  0  0  0  0
153152  1  0  0  0  0
154187  1  0  0  0  0
154173  1  0  0  0  0
155151  1  0  0  0  0
155174  1  0  0  0  0
156155  2  0  0  0  0
157176  1  0  0  0  0
159133  1  0  0  0  0
160133  1  0  0  0  0
161136  1  0  0  0  0
162137  1  0  0  0  0
164141  1  0  0  0  0
165142  1  0  0  0  0
167149  1  0  0  0  0
168150  1  0  0  0  0
171153  1  0  0  0  0
172153  1  0  0  0  0
175156  1  0  0  0  0
177180  1  0  0  0  0
177179  1  0  0  0  0
177181  1  0  0  0  0
178177  1  0  0  0  0
182191  1  0  0  0  0
182183  1  0  0  0  0
183186  1  0  0  0  0
183185  1  0  0  0  0
184193  1  0  0  0  0
184183  1  0  0  0  0
185196  1  0  0  0  0
185195  1  0  0  0  0
186187  1  0  0  0  0
187188  2  0  0  0  0
189182  1  0  0  0  0
190182  1  0  0  0  0
192184  1  0  0  0  0
194184  1  0  0  0  0
197185  1  0  0  0  0
M  END
