mom_tetramer.pdb
 OpenBabel09272416213D

197208  0  0  1  0  0  0  0  0999 V2000
   -2.6350    5.4850    0.8950 C   0  0  0  0  0  0  0  0  0  0  0  0
   -1.5160    4.6600    0.5880 O   0  0  0  0  0  0  0  0  0  0  0  0
   -1.7210    3.3150    0.4520 C   0  0  0  0  0  0  0  0  0  0  0  0
   -2.9290    2.6450    0.5940 C   0  0  0  0  0  0  0  0  0  0  0  0
   -2.9810    1.2490    0.4570 C   0  0  0  0  0  0  0  0  0  0  0  0
   -1.8340    0.4840    0.1710 C   0  0  0  0  0  0  0  0  0  0  0  0
   -1.9530   -0.9960    0.0980 C   0  0  0  0  0  0  0  0  0  0  0  0
   -2.8360   -1.6260   -0.7930 C   0  0  0  0  0  0  0  0  0  0  0  0
   -2.9210   -3.0280   -0.8770 C   0  0  0  0  0  0  0  0  0  0  0  0
   -3.9530   -3.6110   -1.7830 C   0  0  0  0  0  0  0  0  0  0  0  0
   -4.7190   -2.9260   -2.4270 O   0  0  0  0  0  0  0  0  0  0  0  0
   -2.1280   -3.8300   -0.0540 C   0  0  0  0  0  0  0  0  0  0  0  0
   -1.2510   -3.2230    0.8400 C   0  0  0  0  0  0  0  0  0  0  0  0
   -1.1780   -1.8270    0.9210 C   0  0  0  0  0  0  0  0  0  0  0  0
   -0.6030    1.1730   -0.0100 C   0  0  0  0  0  0  0  0  0  0  0  0
    0.6400    0.4640   -0.3770 C   0  0  0  0  0  0  0  0  0  0  0  0
    1.7970    0.5440    0.4250 C   0  0  0  0  0  0  0  0  0  0  0  0
    2.9370   -0.2180    0.1200 C   0  0  0  0  0  0  0  0  0  0  0  0
    4.2180   -0.0960    0.9260 C   0  0  1  0  0  0  0  0  0  0  0  0
    4.5230   -1.3940    1.6780 C   0  0  0  0  0  0  0  0  0  0  0  0
    5.3790    0.3620    0.1260 N   0  0  0  0  0  0  0  0  0  0  0  0
    2.8590   -1.1090   -0.9590 C   0  0  0  0  0  0  0  0  0  0  0  0
    1.7750   -1.1250   -1.8210 C   0  0  0  0  0  0  0  0  0  0  0  0
    0.6710   -0.3430   -1.5290 C   0  0  0  0  0  0  0  0  0  0  0  0
   -0.5740    2.5780    0.1440 C   0  0  0  0  0  0  0  0  0  0  0  0
   -3.0640    5.2350    1.8720 H   0  0  0  0  0  0  0  0  0  0  0  0
   -3.3940    5.4400    0.1070 H   0  0  0  0  0  0  0  0  0  0  0  0
   -2.2770    6.5190    0.9480 H   0  0  0  0  0  0  0  0  0  0  0  0
   -3.8510    3.1680    0.8210 H   0  0  0  0  0  0  0  0  0  0  0  0
   -3.9390    0.7470    0.5910 H   0  0  0  0  0  0  0  0  0  0  0  0
   -3.4780   -1.0170   -1.4280 H   0  0  0  0  0  0  0  0  0  0  0  0
   -2.1960   -4.9140   -0.0790 H   0  0  0  0  0  0  0  0  0  0  0  0
   -0.6230   -3.8290    1.4840 H   0  0  0  0  0  0  0  0  0  0  0  0
   -0.4930   -1.3910    1.6420 H   0  0  0  0  0  0  0  0  0  0  0  0
    1.7910    1.1810    1.3080 H   0  0  0  0  0  0  0  0  0  0  0  0
    4.0760    0.6930    1.6790 H   0  0  0  0  0  0  0  0  0  0  0  0
    5.3980   -1.2650    2.3230 H   0  0  0  0  0  0  0  0  0  0  0  0
    3.6750   -1.7050    2.2950 H   0  0  0  0  0  0  0  0  0  0  0  0
    4.7420   -2.2190    0.9900 H   0  0  0  0  0  0  0  0  0  0  0  0
    6.0910    0.6300    0.7960 H   0  0  0  0  0  0  0  0  0  0  0  0
    3.6910   -1.7630   -1.1940 H   0  0  0  0  0  0  0  0  0  0  0  0
    1.8060   -1.7400   -2.7150 H   0  0  0  0  0  0  0  0  0  0  0  0
   -0.1930   -0.4060   -2.1860 H   0  0  0  0  0  0  0  0  0  0  0  0
    0.3640    3.1150    0.0140 H   0  0  0  0  0  0  0  0  0  0  0  0
    7.1390   -7.0640   -7.7070 C   0  0  0  0  0  0  0  0  0  0  0  0
    7.3640   -5.6800   -7.9490 O   0  0  0  0  0  0  0  0  0  0  0  0
    6.9060   -4.7810   -7.0270 C   0  0  0  0  0  0  0  0  0  0  0  0
    6.2490   -5.0740   -5.8380 C   0  0  0  0  0  0  0  0  0  0  0  0
    5.8410   -4.0370   -4.9820 C   0  0  0  0  0  0  0  0  0  0  0  0
    6.0800   -2.6820   -5.2880 C   0  0  0  0  0  0  0  0  0  0  0  0
    5.5920   -1.6200   -4.3700 C   0  0  0  0  0  0  0  0  0  0  0  0
    6.0140   -1.5520   -3.0290 C   0  0  0  0  0  0  0  0  0  0  0  0
    5.6060   -0.4970   -2.1890 C   0  0  0  0  0  0  0  0  0  0  0  0
    5.9880   -0.5370   -0.7420 C   0  0  0  0  0  0  0  0  0  0  0  0
    6.8010   -1.3530   -0.3220 O   0  0  0  0  0  0  0  0  0  0  0  0
    4.7510    0.4920   -2.6910 C   0  0  0  0  0  0  0  0  0  0  0  0
    4.2930    0.4200   -4.0030 C   0  0  0  0  0  0  0  0  0  0  0  0
    4.7170   -0.6190   -4.8330 C   0  0  0  0  0  0  0  0  0  0  0  0
    6.7730   -2.3840   -6.4930 C   0  0  0  0  0  0  0  0  0  0  0  0
    7.1310   -1.0020   -6.8720 C   0  0  0  0  0  0  0  0  0  0  0  0
    6.7030   -0.4490   -8.0960 C   0  0  0  0  0  0  0  0  0  0  0  0
    6.9470    0.8960   -8.4040 C   0  0  0  0  0  0  0  0  0  0  0  0
    6.5360    1.4880   -9.7400 C   0  0  1  0  0  0  0  0  0  0  0  0
    5.4300    2.5310   -9.5590 C   0  0  0  0  0  0  0  0  0  0  0  0
    7.6730    2.0090  -10.5320 N   0  0  0  0  0  0  0  0  0  0  0  0
    7.5670    1.6870   -7.4280 C   0  0  0  0  0  0  0  0  0  0  0  0
    8.0970    1.1400   -6.2690 C   0  0  0  0  0  0  0  0  0  0  0  0
    7.8770   -0.1980   -5.9930 C   0  0  0  0  0  0  0  0  0  0  0  0
    7.1550   -3.4430   -7.3450 C   0  0  0  0  0  0  0  0  0  0  0  0
    6.0700   -7.2900   -7.6390 H   0  0  0  0  0  0  0  0  0  0  0  0
    7.6740   -7.4080   -6.8160 H   0  0  0  0  0  0  0  0  0  0  0  0
    7.5380   -7.6180   -8.5650 H   0  0  0  0  0  0  0  0  0  0  0  0
    6.0340   -6.0960   -5.5460 H   0  0  0  0  0  0  0  0  0  0  0  0
    5.3170   -4.2980   -4.0640 H   0  0  0  0  0  0  0  0  0  0  0  0
    6.6560   -2.3350   -2.6270 H   0  0  0  0  0  0  0  0  0  0  0  0
    4.3520    1.2650   -2.0390 H   0  0  0  0  0  0  0  0  0  0  0  0
    3.5850    1.1580   -4.3720 H   0  0  0  0  0  0  0  0  0  0  0  0
    4.3670   -0.6320   -5.8640 H   0  0  0  0  0  0  0  0  0  0  0  0
    6.1410   -1.0700   -8.7930 H   0  0  0  0  0  0  0  0  0  0  0  0
    6.1220    0.6800  -10.3620 H   0  0  0  0  0  0  0  0  0  0  0  0
    5.0740    2.8880  -10.5310 H   0  0  0  0  0  0  0  0  0  0  0  0
    4.5800    2.1130   -9.0100 H   0  0  0  0  0  0  0  0  0  0  0  0
    5.7850    3.4020   -8.9970 H   0  0  0  0  0  0  0  0  0  0  0  0
    7.3220    2.1490  -11.4720 H   0  0  0  0  0  0  0  0  0  0  0  0
    7.7140    2.7490   -7.5890 H   0  0  0  0  0  0  0  0  0  0  0  0
    8.6750    1.7640   -5.5940 H   0  0  0  0  0  0  0  0  0  0  0  0
    8.2490   -0.5980   -5.0530 H   0  0  0  0  0  0  0  0  0  0  0  0
    7.6770   -3.2180   -8.2740 H   0  0  0  0  0  0  0  0  0  0  0  0
   12.3460    9.9660   -4.6640 C   0  0  0  0  0  0  0  0  0  0  0  0
   13.1400    9.0950   -5.4610 O   0  0  0  0  0  0  0  0  0  0  0  0
   12.5390    7.9930   -6.0030 C   0  0  0  0  0  0  0  0  0  0  0  0
   11.2070    7.6240   -5.8620 C   0  0  0  0  0  0  0  0  0  0  0  0
   10.7350    6.4480   -6.4660 C   0  0  0  0  0  0  0  0  0  0  0  0
   11.5760    5.6180   -7.2330 C   0  0  0  0  0  0  0  0  0  0  0  0
   11.0340    4.3600   -7.8140 C   0  0  0  0  0  0  0  0  0  0  0  0
    9.9280    4.3620   -8.6860 C   0  0  0  0  0  0  0  0  0  0  0  0
    9.4830    3.1750   -9.2990 C   0  0  0  0  0  0  0  0  0  0  0  0
    8.2550    3.2130  -10.1550 C   0  0  0  0  0  0  0  0  0  0  0  0
    7.7630    4.2780  -10.5160 O   0  0  0  0  0  0  0  0  0  0  0  0
   10.1280    1.9660   -9.0100 C   0  0  0  0  0  0  0  0  0  0  0  0
   11.1890    1.9370   -8.1100 C   0  0  0  0  0  0  0  0  0  0  0  0
   11.6420    3.1220   -7.5310 C   0  0  0  0  0  0  0  0  0  0  0  0
   12.9330    6.0150   -7.4050 C   0  0  0  0  0  0  0  0  0  0  0  0
   13.8710    5.2560   -8.2590 C   0  0  0  0  0  0  0  0  0  0  0  0
   15.0870    4.7540   -7.7550 C   0  0  0  0  0  0  0  0  0  0  0  0
   15.9130    3.9460   -8.5510 C   0  0  0  0  0  0  0  0  0  0  0  0
   17.2530    3.4450   -8.0440 C   0  0  1  0  0  0  0  0  0  0  0  0
   17.2410    1.9250   -7.8690 C   0  0  0  0  0  0  0  0  0  0  0  0
   18.4050    3.8980   -8.8550 N   0  0  0  0  0  0  0  0  0  0  0  0
   15.4560    3.6040   -9.8330 C   0  0  0  0  0  0  0  0  0  0  0  0
   14.3230    4.1780  -10.3880 C   0  0  0  0  0  0  0  0  0  0  0  0
   13.5350    4.9960   -9.6010 C   0  0  0  0  0  0  0  0  0  0  0  0
   13.3860    7.1910   -6.7720 C   0  0  0  0  0  0  0  0  0  0  0  0
   11.9610    9.4560   -3.7750 H   0  0  0  0  0  0  0  0  0  0  0  0
   11.5360   10.4130   -5.2480 H   0  0  0  0  0  0  0  0  0  0  0  0
   12.9950   10.7800   -4.3230 H   0  0  0  0  0  0  0  0  0  0  0  0
   10.5090    8.2230   -5.2850 H   0  0  0  0  0  0  0  0  0  0  0  0
    9.6920    6.1710   -6.3230 H   0  0  0  0  0  0  0  0  0  0  0  0
    9.3990    5.2930   -8.8860 H   0  0  0  0  0  0  0  0  0  0  0  0
    9.7510    1.0260   -9.4050 H   0  0  0  0  0  0  0  0  0  0  0  0
   11.6500    0.9890   -7.8460 H   0  0  0  0  0  0  0  0  0  0  0  0
   12.5010    3.0760   -6.8640 H   0  0  0  0  0  0  0  0  0  0  0  0
   15.3720    4.9730   -6.7260 H   0  0  0  0  0  0  0  0  0  0  0  0
   17.4300    3.8850   -7.0520 H   0  0  0  0  0  0  0  0  0  0  0  0
   18.1850    1.5850   -7.4280 H   0  0  0  0  0  0  0  0  0  0  0  0
   16.4190    1.6070   -7.2200 H   0  0  0  0  0  0  0  0  0  0  0  0
   17.1200    1.4100   -8.8280 H   0  0  0  0  0  0  0  0  0  0  0  0
   19.2300    3.6920   -8.3040 H   0  0  0  0  0  0  0  0  0  0  0  0
   16.0260    2.9300  -10.4610 H   0  0  0  0  0  0  0  0  0  0  0  0
   14.0670    3.9820  -11.4260 H   0  0  0  0  0  0  0  0  0  0  0  0
   12.6170    5.3910  -10.0280 H   0  0  0  0  0  0  0  0  0  0  0  0
   14.4220    7.5050   -6.8970 H   0  0  0  0  0  0  0  0  0  0  0  0
   17.0420   -0.0160  -18.9380 C   0  0  0  0  0  0  0  0  0  0  0  0
   17.6060    1.2770  -18.7490 O   0  0  0  0  0  0  0  0  0  0  0  0
   17.5590    1.8170  -17.4930 C   0  0  0  0  0  0  0  0  0  0  0  0
   16.9930    1.2320  -16.3670 C   0  0  0  0  0  0  0  0  0  0  0  0
   17.0110    1.9090  -15.1400 C   0  0  0  0  0  0  0  0  0  0  0  0
   17.5920    3.1860  -15.0050 C   0  0  0  0  0  0  0  0  0  0  0  0
   17.5340    3.8770  -13.6940 C   0  0  0  0  0  0  0  0  0  0  0  0
   18.0940    3.3050  -12.5360 C   0  0  0  0  0  0  0  0  0  0  0  0
   18.1050    4.0040  -11.3150 C   0  0  0  0  0  0  0  0  0  0  0  0
   18.6250    3.3120  -10.0940 C   0  0  0  0  0  0  0  0  0  0  0  0
   19.2290    2.2470  -10.1740 O   0  0  0  0  0  0  0  0  0  0  0  0
   17.5260    5.2770  -11.2460 C   0  0  0  0  0  0  0  0  0  0  0  0
   16.9270    5.8380  -12.3710 C   0  0  0  0  0  0  0  0  0  0  0  0
   16.9430    5.1490  -13.5820 C   0  0  0  0  0  0  0  0  0  0  0  0
   18.1970    3.7770  -16.1490 C   0  0  0  0  0  0  0  0  0  0  0  0
   18.9020    5.0790  -16.0890 C   0  0  0  0  0  0  0  0  0  0  0  0
   18.5380    6.1570  -16.9250 C   0  0  0  0  0  0  0  0  0  0  0  0
   19.1690    7.4120  -16.8160 C   0  0  0  0  0  0  0  0  0  0  0  0
   18.7650    8.5910  -17.6950 C   0  0  1  0  0  0  0  0  0  0  0  0
   17.9480    9.6300  -16.9170 C   0  0  0  0  0  0  0  0  0  0  0  0
   19.9330    9.1640  -18.3800 N   0  0  0  0  0  0  0  0  0  0  0  0
   20.1760    7.5570  -15.8480 C   0  0  0  0  0  0  0  0  0  0  0  0
   20.5660    6.5060  -15.0350 C   0  0  0  0  0  0  0  0  0  0  0  0
   19.9370    5.2760  -15.1580 C   0  0  0  0  0  0  0  0  0  0  0  0
   18.1560    3.0770  -17.3750 C   0  0  0  0  0  0  0  0  0  0  0  0
   15.9650   -0.0160  -18.7410 H   0  0  0  0  0  0  0  0  0  0  0  0
   17.5550   -0.7700  -18.3320 H   0  0  0  0  0  0  0  0  0  0  0  0
   17.1850   -0.2870  -19.9900 H   0  0  0  0  0  0  0  0  0  0  0  0
   16.5250    0.2550  -16.4050 H   0  0  0  0  0  0  0  0  0  0  0  0
   16.5510    1.4320  -14.2750 H   0  0  0  0  0  0  0  0  0  0  0  0
   18.5190    2.3030  -12.5800 H   0  0  0  0  0  0  0  0  0  0  0  0
   17.4440    5.8010  -10.2960 H   0  0  0  0  0  0  0  0  0  0  0  0
   16.4310    6.8020  -12.3010 H   0  0  0  0  0  0  0  0  0  0  0  0
   16.5040    5.6250  -14.4570 H   0  0  0  0  0  0  0  0  0  0  0  0
   17.7360    6.0150  -17.6470 H   0  0  0  0  0  0  0  0  0  0  0  0
   18.1190    8.2060  -18.4950 H   0  0  0  0  0  0  0  0  0  0  0  0
   17.6370   10.4400  -17.5850 H   0  0  0  0  0  0  0  0  0  0  0  0
   17.0640    9.1930  -16.4460 H   0  0  0  0  0  0  0  0  0  0  0  0
   18.5120   10.0780  -16.0950 H   0  0  0  0  0  0  0  0  0  0  0  0
   19.7350    9.5340  -19.2980 H   0  0  0  0  0  0  0  0  0  0  0  0
   20.6790    8.5040  -15.7040 H   0  0  0  0  0  0  0  0  0  0  0  0
   21.3500    6.6590  -14.2990 H   0  0  0  0  0  0  0  0  0  0  0  0
   20.2410    4.4740  -14.4900 H   0  0  0  0  0  0  0  0  0  0  0  0
   18.6200    3.5150  -18.2570 H   0  0  0  0  0  0  0  0  0  0  0  0
   -5.3650   -5.4280   -1.6540 C   0  0  0  0  0  0  0  0  0  0  0  0
   -4.0160   -4.9610   -1.6420 O   0  0  0  0  0  0  0  0  0  0  0  0
   -5.8000   -5.1580   -0.6870 H   0  0  0  0  0  0  0  0  0  0  0  0
   -5.3800   -6.5170   -1.7430 H   0  0  0  0  0  0  0  0  0  0  0  0
   -5.9610   -5.0010   -2.4670 H   0  0  0  0  0  0  0  0  0  0  0  0
   24.4400   10.3510  -18.1350 C   0  0  0  0  0  0  0  0  0  0  0  0
   23.1050   10.5830  -17.4030 C   0  0  0  0  0  0  0  0  0  0  0  0
   23.2830   10.0310  -15.9620 C   0  0  0  0  0  0  0  0  0  0  0  0
   22.8520   12.1060  -17.3420 C   0  0  0  0  0  0  0  0  0  0  0  0
   22.0820    9.8950  -18.1820 O   0  0  0  0  0  0  0  0  0  0  0  0
   20.8060    9.9730  -17.7120 C   0  0  0  0  0  0  0  0  0  0  0  0
   20.4980   10.6580  -16.7350 O   0  0  0  0  0  0  0  0  0  0  0  0
   25.2790   10.8620  -17.6490 H   0  0  0  0  0  0  0  0  0  0  0  0
   24.6750    9.2810  -18.1820 H   0  0  0  0  0  0  0  0  0  0  0  0
   24.3720   10.7060  -19.1690 H   0  0  0  0  0  0  0  0  0  0  0  0
   23.4220    8.9460  -15.9640 H   0  0  0  0  0  0  0  0  0  0  0  0
   22.4190   10.2410  -15.3240 H   0  0  0  0  0  0  0  0  0  0  0  0
   24.1530   10.4840  -15.4600 H   0  0  0  0  0  0  0  0  0  0  0  0
   22.6550   12.4910  -18.3460 H   0  0  0  0  0  0  0  0  0  0  0  0
   21.9790   12.3570  -16.7330 H   0  0  0  0  0  0  0  0  0  0  0  0
   23.6940   12.6500  -16.9020 H   0  0  0  0  0  0  0  0  0  0  0  0
  1 28  1  0  0  0  0
  1 26  1  0  0  0  0
  2  1  1  0  0  0  0
  3  2  1  0  0  0  0
  3  4  1  0  0  0  0
  4 29  1  0  0  0  0
  5 30  1  0  0  0  0
  5  4  2  0  0  0  0
  6  5  1  0  0  0  0
  7  6  1  0  0  0  0
  7 14  1  0  0  0  0
  8  7  2  0  0  0  0
  9  8  1  0  0  0  0
  9 12  2  0  0  0  0
 10178  1  0  0  0  0
 10  9  1  0  0  0  0
 11 10  2  0  0  0  0
 12 13  1  0  0  0  0
 13 14  2  0  0  0  0
 13 33  1  0  0  0  0
 14 34  1  0  0  0  0
 15 25  1  0  0  0  0
 15  6  2  0  0  0  0
 16 15  1  0  0  0  0
 16 17  1  0  0  0  0
 17 35  1  0  0  0  0
 18 17  2  0  0  0  0
 18 19  1  0  0  0  0
 19 20  1  0  0  0  0
 19 36  1  1  0  0  0
 20 38  1  0  0  0  0
 20 37  1  0  0  0  0
 21 40  1  0  0  0  0
 21 19  1  0  0  0  0
 22 18  1  0  0  0  0
 23 24  1  0  0  0  0
 23 22  2  0  0  0  0
 24 16  2  0  0  0  0
 25  3  2  0  0  0  0
 27  1  1  0  0  0  0
 31  8  1  0  0  0  0
 32 12  1  0  0  0  0
 39 20  1  0  0  0  0
 41 22  1  0  0  0  0
 42 23  1  0  0  0  0
 43 24  1  0  0  0  0
 44 25  1  0  0  0  0
 45 70  1  0  0  0  0
 45 71  1  0  0  0  0
 46 45  1  0  0  0  0
 46 47  1  0  0  0  0
 47 48  1  0  0  0  0
 48 73  1  0  0  0  0
 48 49  2  0  0  0  0
 49 74  1  0  0  0  0
 50 49  1  0  0  0  0
 50 51  1  0  0  0  0
 51 52  1  0  0  0  0
 52 75  1  0  0  0  0
 52 53  2  0  0  0  0
 53 54  1  0  0  0  0
 54 55  2  0  0  0  0
 54 21  1  0  0  0  0
 56 53  1  0  0  0  0
 56 76  1  0  0  0  0
 57 56  2  0  0  0  0
 58 51  2  0  0  0  0
 58 57  1  0  0  0  0
 59 50  2  0  0  0  0
 60 59  1  0  0  0  0
 60 68  1  0  0  0  0
 61 60  2  0  0  0  0
 62 61  1  0  0  0  0
 62 66  2  0  0  0  0
 63 80  1  6  0  0  0
 63 64  1  0  0  0  0
 63 62  1  0  0  0  0
 64 82  1  0  0  0  0
 64 83  1  0  0  0  0
 65 98  1  0  0  0  0
 65 63  1  0  0  0  0
 66 67  1  0  0  0  0
 67 68  2  0  0  0  0
 67 86  1  0  0  0  0
 68 87  1  0  0  0  0
 69 47  2  0  0  0  0
 69 59  1  0  0  0  0
 72 45  1  0  0  0  0
 77 57  1  0  0  0  0
 78 58  1  0  0  0  0
 79 61  1  0  0  0  0
 81 64  1  0  0  0  0
 84 65  1  0  0  0  0
 85 66  1  0  0  0  0
 88 69  1  0  0  0  0
 89116  1  0  0  0  0
 89114  1  0  0  0  0
 90 89  1  0  0  0  0
 91 92  1  0  0  0  0
 91 90  1  0  0  0  0
 92117  1  0  0  0  0
 93118  1  0  0  0  0
 93 92  2  0  0  0  0
 94 93  1  0  0  0  0
 95102  1  0  0  0  0
 95 94  1  0  0  0  0
 96 95  2  0  0  0  0
 97100  2  0  0  0  0
 97 96  1  0  0  0  0
 98 97  1  0  0  0  0
 99 98  2  0  0  0  0
100101  1  0  0  0  0
101121  1  0  0  0  0
101102  2  0  0  0  0
102122  1  0  0  0  0
103 94  2  0  0  0  0
103113  1  0  0  0  0
104105  1  0  0  0  0
104103  1  0  0  0  0
105123  1  0  0  0  0
106107  1  0  0  0  0
106105  2  0  0  0  0
107108  1  0  0  0  0
107124  1  1  0  0  0
108125  1  0  0  0  0
108126  1  0  0  0  0
109128  1  0  0  0  0
109107  1  0  0  0  0
110106  1  0  0  0  0
111110  2  0  0  0  0
111112  1  0  0  0  0
112104  2  0  0  0  0
113 91  2  0  0  0  0
115 89  1  0  0  0  0
119 96  1  0  0  0  0
120100  1  0  0  0  0
127108  1  0  0  0  0
129110  1  0  0  0  0
130111  1  0  0  0  0
131112  1  0  0  0  0
132113  1  0  0  0  0
133134  1  0  0  0  0
133158  1  0  0  0  0
133159  1  0  0  0  0
134135  1  0  0  0  0
135157  2  0  0  0  0
135136  1  0  0  0  0
136137  2  0  0  0  0
137138  1  0  0  0  0
137162  1  0  0  0  0
138139  1  0  0  0  0
139146  2  0  0  0  0
139140  1  0  0  0  0
140141  2  0  0  0  0
141144  1  0  0  0  0
141142  1  0  0  0  0
142109  1  0  0  0  0
143142  2  0  0  0  0
144164  1  0  0  0  0
145165  1  0  0  0  0
145144  2  0  0  0  0
146145  1  0  0  0  0
147148  1  0  0  0  0
147138  2  0  0  0  0
148156  1  0  0  0  0
149150  1  0  0  0  0
149148  2  0  0  0  0
150154  2  0  0  0  0
151168  1  6  0  0  0
151152  1  0  0  0  0
151150  1  0  0  0  0
152170  1  0  0  0  0
152171  1  0  0  0  0
153187  1  0  0  0  0
153151  1  0  0  0  0
154173  1  0  0  0  0
154155  1  0  0  0  0
155174  1  0  0  0  0
156155  2  0  0  0  0
156175  1  0  0  0  0
157147  1  0  0  0  0
160133  1  0  0  0  0
161136  1  0  0  0  0
163140  1  0  0  0  0
166146  1  0  0  0  0
167149  1  0  0  0  0
169152  1  0  0  0  0
172153  1  0  0  0  0
176157  1  0  0  0  0
177178  1  0  0  0  0
177179  1  0  0  0  0
180177  1  0  0  0  0
181177  1  0  0  0  0
182189  1  0  0  0  0
182183  1  0  0  0  0
183185  1  0  0  0  0
183184  1  0  0  0  0
184194  1  0  0  0  0
184193  1  0  0  0  0
185197  1  0  0  0  0
185196  1  0  0  0  0
186187  1  0  0  0  0
186183  1  0  0  0  0
187188  2  0  0  0  0
190182  1  0  0  0  0
191182  1  0  0  0  0
192184  1  0  0  0  0
195185  1  0  0  0  0
M  END
