pop_tetramer.pdb
  -OEChem-02182614183D

197208  0     1  0  0  0  0  0999 V2000
   -2.0890   -4.5650   -1.5670 C   0  0  0  0  0  0  0  0  0  0  0  0
   -1.3450   -4.9780   -2.4390 O   0  0  0  0  0  0  0  0  0  0  0  0
   -2.2510   -3.1310   -1.2210 C   0  0  0  0  0  0  0  0  0  0  0  0
   -3.0200   -2.7150   -0.1280 C   0  0  0  0  0  0  0  0  0  0  0  0
   -2.9440   -1.3940    0.3160 C   0  0  0  0  0  0  0  0  0  0  0  0
   -2.1230   -0.4600   -0.3370 C   0  0  0  0  0  0  0  0  0  0  0  0
   -1.9800    0.9040    0.2040 C   0  0  0  0  0  0  0  0  0  0  0  0
   -0.7280    1.4730    0.5680 C   0  0  0  0  0  0  0  0  0  0  0  0
   -0.7170    2.7970    1.0550 C   0  0  0  0  0  0  0  0  0  0  0  0
   -1.8900    3.5440    1.2030 C   0  0  0  0  0  0  0  0  0  0  0  0
   -1.7130    4.8110    1.6860 O   0  0  0  0  0  0  0  0  0  0  0  0
   -2.8840    5.6090    1.8100 C   0  0  0  0  0  0  0  0  0  0  0  0
   -3.1100    2.9710    0.8650 C   0  0  0  0  0  0  0  0  0  0  0  0
   -3.1510    1.6700    0.3690 C   0  0  0  0  0  0  0  0  0  0  0  0
    0.5580    0.7420    0.4690 C   0  0  0  0  0  0  0  0  0  0  0  0
    1.6150    1.2380   -0.3120 C   0  0  0  0  0  0  0  0  0  0  0  0
    2.8060    0.5160   -0.4700 C   0  0  0  0  0  0  0  0  0  0  0  0
    2.9810   -0.7210    0.1610 C   0  0  0  0  0  0  0  0  0  0  0  0
    1.9500   -1.2000    0.9810 C   0  0  0  0  0  0  0  0  0  0  0  0
    0.7600   -0.4780    1.1340 C   0  0  0  0  0  0  0  0  0  0  0  0
    4.2440   -1.5370   -0.0280 C   0  0  2  0  0  0  0  0  0  0  0  0
    5.3950   -0.8790    0.5760 N   0  0  0  0  0  0  0  0  0  0  0  0
    4.4370   -2.0290   -1.4630 C   0  0  0  0  0  0  0  0  0  0  0  0
   -1.4300   -0.8690   -1.4860 C   0  0  0  0  0  0  0  0  0  0  0  0
   -1.4770   -2.1970   -1.9160 C   0  0  0  0  0  0  0  0  0  0  0  0
   -3.6400   -3.4150    0.4280 H   0  0  0  0  0  0  0  0  0  0  0  0
   -3.4960   -1.1080    1.2100 H   0  0  0  0  0  0  0  0  0  0  0  0
    0.2290    3.2570    1.3370 H   0  0  0  0  0  0  0  0  0  0  0  0
   -2.5850    6.5910    2.1870 H   0  0  0  0  0  0  0  0  0  0  0  0
   -3.5810    5.1720    2.5330 H   0  0  0  0  0  0  0  0  0  0  0  0
   -3.3650    5.7570    0.8370 H   0  0  0  0  0  0  0  0  0  0  0  0
   -4.0490    3.5050    0.9660 H   0  0  0  0  0  0  0  0  0  0  0  0
   -4.1190    1.2500    0.0960 H   0  0  0  0  0  0  0  0  0  0  0  0
    1.5130    2.1910   -0.8290 H   0  0  0  0  0  0  0  0  0  0  0  0
    3.5930    0.9220   -1.1040 H   0  0  0  0  0  0  0  0  0  0  0  0
    2.0510   -2.1520    1.4980 H   0  0  0  0  0  0  0  0  0  0  0  0
   -0.0250   -0.8900    1.7650 H   0  0  0  0  0  0  0  0  0  0  0  0
    4.1410   -2.4470    0.5790 H   0  0  0  0  0  0  0  0  0  0  0  0
    5.3450   -0.8160    1.5850 H   0  0  0  0  0  0  0  0  0  0  0  0
    3.5960   -2.6630   -1.7670 H   0  0  0  0  0  0  0  0  0  0  0  0
    4.4950   -1.2110   -2.1870 H   0  0  0  0  0  0  0  0  0  0  0  0
    5.3540   -2.6230   -1.5490 H   0  0  0  0  0  0  0  0  0  0  0  0
   -0.7980   -0.1640   -2.0240 H   0  0  0  0  0  0  0  0  0  0  0  0
   -0.8650   -2.5050   -2.7620 H   0  0  0  0  0  0  0  0  0  0  0  0
    6.3000   -0.0550   -0.0500 C   0  0  0  0  0  0  0  0  0  0  0  0
    6.2600    0.2340   -1.2490 O   0  0  0  0  0  0  0  0  0  0  0  0
    7.3900    0.5010    0.8110 C   0  0  0  0  0  0  0  0  0  0  0  0
    7.7130   -0.0640    2.0540 C   0  0  0  0  0  0  0  0  0  0  0  0
    8.7650    0.4540    2.8140 C   0  0  0  0  0  0  0  0  0  0  0  0
    9.5330    1.5330    2.3510 C   0  0  0  0  0  0  0  0  0  0  0  0
   10.6830    1.9980    3.1490 C   0  0  0  0  0  0  0  0  0  0  0  0
   12.0300    1.8180    2.7370 C   0  0  0  0  0  0  0  0  0  0  0  0
   13.0570    2.2550    3.6010 C   0  0  0  0  0  0  0  0  0  0  0  0
   12.7860    2.8430    4.8420 C   0  0  0  0  0  0  0  0  0  0  0  0
   13.8920    3.1970    5.5650 O   0  0  0  0  0  0  0  0  0  0  0  0
   13.6670    3.8010    6.8330 C   0  0  0  0  0  0  0  0  0  0  0  0
   11.4650    3.0130    5.2380 C   0  0  0  0  0  0  0  0  0  0  0  0
   10.4280    2.5990    4.3990 C   0  0  0  0  0  0  0  0  0  0  0  0
   12.3980    1.1750    1.4550 C   0  0  0  0  0  0  0  0  0  0  0  0
   13.1390    1.8650    0.4810 C   0  0  0  0  0  0  0  0  0  0  0  0
   13.4160    1.2880   -0.7670 C   0  0  0  0  0  0  0  0  0  0  0  0
   12.9530    0.0040   -1.0780 C   0  0  0  0  0  0  0  0  0  0  0  0
   12.2630   -0.7110   -0.0870 C   0  0  0  0  0  0  0  0  0  0  0  0
   11.9970   -0.1360    1.1590 C   0  0  0  0  0  0  0  0  0  0  0  0
   13.1260   -0.6010   -2.4570 C   0  0  2  0  0  0  0  0  0  0  0  0
   14.5080   -0.9590   -2.7380 N   0  0  0  0  0  0  0  0  0  0  0  0
   12.4110    0.1930   -3.5510 C   0  0  0  0  0  0  0  0  0  0  0  0
    9.2010    2.0990    1.1100 C   0  0  0  0  0  0  0  0  0  0  0  0
    8.1460    1.5820    0.3450 C   0  0  0  0  0  0  0  0  0  0  0  0
    7.1920   -0.9320    2.4430 H   0  0  0  0  0  0  0  0  0  0  0  0
    9.0150   -0.0190    3.7620 H   0  0  0  0  0  0  0  0  0  0  0  0
   14.0970    2.1160    3.3100 H   0  0  0  0  0  0  0  0  0  0  0  0
   14.6420    4.0240    7.2760 H   0  0  0  0  0  0  0  0  0  0  0  0
   13.1430    3.1170    7.5090 H   0  0  0  0  0  0  0  0  0  0  0  0
   13.1250    4.7470    6.7300 H   0  0  0  0  0  0  0  0  0  0  0  0
   11.2020    3.4590    6.1910 H   0  0  0  0  0  0  0  0  0  0  0  0
    9.4010    2.7430    4.7300 H   0  0  0  0  0  0  0  0  0  0  0  0
   13.4820    2.8790    0.6770 H   0  0  0  0  0  0  0  0  0  0  0  0
   13.9680    1.8620   -1.5100 H   0  0  0  0  0  0  0  0  0  0  0  0
   11.8940   -1.7140   -0.2860 H   0  0  0  0  0  0  0  0  0  0  0  0
   11.4370   -0.7140    1.8910 H   0  0  0  0  0  0  0  0  0  0  0  0
   12.6270   -1.5800   -2.4420 H   0  0  0  0  0  0  0  0  0  0  0  0
   14.8840   -1.7100   -2.1760 H   0  0  0  0  0  0  0  0  0  0  0  0
   11.3380    0.2590   -3.3410 H   0  0  0  0  0  0  0  0  0  0  0  0
   12.7820    1.2190   -3.6370 H   0  0  0  0  0  0  0  0  0  0  0  0
   12.5360   -0.2950   -4.5240 H   0  0  0  0  0  0  0  0  0  0  0  0
    9.7810    2.9320    0.7170 H   0  0  0  0  0  0  0  0  0  0  0  0
    7.9300    2.0200   -0.6290 H   0  0  0  0  0  0  0  0  0  0  0  0
   15.3690   -0.2940   -3.5790 C   0  0  0  0  0  0  0  0  0  0  0  0
   15.1510    0.7970   -4.0900 O   0  0  0  0  0  0  0  0  0  0  0  0
   16.6410   -1.0080   -3.8890 C   0  0  0  0  0  0  0  0  0  0  0  0
   16.7080   -2.4060   -3.8830 C   0  0  0  0  0  0  0  0  0  0  0  0
   17.8910   -3.0500   -4.2500 C   0  0  0  0  0  0  0  0  0  0  0  0
   19.0220   -2.3150   -4.6460 C   0  0  0  0  0  0  0  0  0  0  0  0
   20.2300   -3.0300   -5.0940 C   0  0  0  0  0  0  0  0  0  0  0  0
   20.6050   -3.1320   -6.4600 C   0  0  0  0  0  0  0  0  0  0  0  0
   21.7420   -3.9060   -6.7820 C   0  0  0  0  0  0  0  0  0  0  0  0
   22.4990   -4.5630   -5.8020 C   0  0  0  0  0  0  0  0  0  0  0  0
   23.5620   -5.2840   -6.2740 O   0  0  0  0  0  0  0  0  0  0  0  0
   24.3520   -5.9750   -5.3110 C   0  0  0  0  0  0  0  0  0  0  0  0
   22.1300   -4.4430   -4.4670 C   0  0  0  0  0  0  0  0  0  0  0  0
   21.0130   -3.6810   -4.1190 C   0  0  0  0  0  0  0  0  0  0  0  0
   19.8470   -2.4690   -7.5490 C   0  0  0  0  0  0  0  0  0  0  0  0
   20.4510   -1.5040   -8.3720 C   0  0  0  0  0  0  0  0  0  0  0  0
   19.7160   -0.8130   -9.3490 C   0  0  0  0  0  0  0  0  0  0  0  0
   18.3480   -1.0570   -9.5210 C   0  0  0  0  0  0  0  0  0  0  0  0
   17.7530   -2.0540   -8.7340 C   0  0  0  0  0  0  0  0  0  0  0  0
   18.4930   -2.7540   -7.7750 C   0  0  0  0  0  0  0  0  0  0  0  0
   17.4940   -0.2460  -10.4770 C   0  0  2  0  0  0  0  0  0  0  0  0
   17.7420   -0.5810  -11.8730 N   0  0  0  0  0  0  0  0  0  0  0  0
   17.4850    1.2490  -10.1520 C   0  0  0  0  0  0  0  0  0  0  0  0
   18.9440   -0.9150   -4.6470 C   0  0  0  0  0  0  0  0  0  0  0  0
   17.7590   -0.2660   -4.2820 C   0  0  0  0  0  0  0  0  0  0  0  0
   15.8380   -3.0130   -3.6500 H   0  0  0  0  0  0  0  0  0  0  0  0
   17.9170   -4.1380   -4.2760 H   0  0  0  0  0  0  0  0  0  0  0  0
   22.0370   -4.0180   -7.8250 H   0  0  0  0  0  0  0  0  0  0  0  0
   25.1670   -6.4760   -5.8420 H   0  0  0  0  0  0  0  0  0  0  0  0
   23.7650   -6.7460   -4.8000 H   0  0  0  0  0  0  0  0  0  0  0  0
   24.8020   -5.2810   -4.5930 H   0  0  0  0  0  0  0  0  0  0  0  0
   22.6780   -4.9350   -3.6710 H   0  0  0  0  0  0  0  0  0  0  0  0
   20.7430   -3.6000   -3.0670 H   0  0  0  0  0  0  0  0  0  0  0  0
   21.5020   -1.2560   -8.2370 H   0  0  0  0  0  0  0  0  0  0  0  0
   20.2160   -0.0550   -9.9520 H   0  0  0  0  0  0  0  0  0  0  0  0
   16.6920   -2.2750   -8.8320 H   0  0  0  0  0  0  0  0  0  0  0  0
   17.9860   -3.5070   -7.1750 H   0  0  0  0  0  0  0  0  0  0  0  0
   16.4540   -0.5740  -10.3360 H   0  0  0  0  0  0  0  0  0  0  0  0
   17.4340   -1.4980  -12.1600 H   0  0  0  0  0  0  0  0  0  0  0  0
   17.0890    1.4210   -9.1460 H   0  0  0  0  0  0  0  0  0  0  0  0
   18.4870    1.6890  -10.1810 H   0  0  0  0  0  0  0  0  0  0  0  0
   16.8550    1.7980  -10.8610 H   0  0  0  0  0  0  0  0  0  0  0  0
   19.7980   -0.3190   -4.9650 H   0  0  0  0  0  0  0  0  0  0  0  0
   17.7040    0.8200   -4.3280 H   0  0  0  0  0  0  0  0  0  0  0  0
   18.4490    0.1800  -12.7780 C   0  0  0  0  0  0  0  0  0  0  0  0
   19.1110    1.1690  -12.4930 O   0  0  0  0  0  0  0  0  0  0  0  0
   18.3540   -0.2530  -14.2030 C   0  0  0  0  0  0  0  0  0  0  0  0
   17.2510   -0.9760  -14.6720 C   0  0  0  0  0  0  0  0  0  0  0  0
   17.1680   -1.3320  -16.0180 C   0  0  0  0  0  0  0  0  0  0  0  0
   18.1650   -0.9520  -16.9300 C   0  0  0  0  0  0  0  0  0  0  0  0
   17.9880   -1.2750  -18.3570 C   0  0  0  0  0  0  0  0  0  0  0  0
   17.5970   -0.3040  -19.3120 C   0  0  0  0  0  0  0  0  0  0  0  0
   17.3600   -0.7130  -20.6410 C   0  0  0  0  0  0  0  0  0  0  0  0
   17.5030   -2.0470  -21.0340 C   0  0  0  0  0  0  0  0  0  0  0  0
   17.2170   -2.2980  -22.3480 O   0  0  0  0  0  0  0  0  0  0  0  0
   17.3380   -3.6470  -22.7850 C   0  0  0  0  0  0  0  0  0  0  0  0
   17.9020   -2.9910  -20.0930 C   0  0  0  0  0  0  0  0  0  0  0  0
   18.1360   -2.6090  -18.7700 C   0  0  0  0  0  0  0  0  0  0  0  0
   17.3900    1.1060  -18.9420 C   0  0  0  0  0  0  0  0  0  0  0  0
   18.1840    2.1230  -19.4910 C   0  0  0  0  0  0  0  0  0  0  0  0
   18.0120    3.4510  -19.0950 C   0  0  0  0  0  0  0  0  0  0  0  0
   17.0430    3.7920  -18.1390 C   0  0  0  0  0  0  0  0  0  0  0  0
   16.2420    2.7790  -17.5990 C   0  0  0  0  0  0  0  0  0  0  0  0
   16.4050    1.4590  -18.0090 C   0  0  0  0  0  0  0  0  0  0  0  0
   16.7530    5.2400  -17.7790 C   0  0  2  0  0  0  0  0  0  0  0  0
   16.3040    5.9710  -18.9480 N   0  0  0  0  0  0  0  0  0  0  0  0
   17.9780    5.8930  -17.1420 C   0  0  0  0  0  0  0  0  0  0  0  0
   19.2560   -0.2070  -16.4590 C   0  0  0  0  0  0  0  0  0  0  0  0
   19.3480    0.1440  -15.1060 C   0  0  0  0  0  0  0  0  0  0  0  0
   16.4180   -1.2260  -14.0220 H   0  0  0  0  0  0  0  0  0  0  0  0
   16.2880   -1.8650  -16.3730 H   0  0  0  0  0  0  0  0  0  0  0  0
   17.0310    0.0200  -21.3770 H   0  0  0  0  0  0  0  0  0  0  0  0
   17.1350   -3.6710  -23.8600 H   0  0  0  0  0  0  0  0  0  0  0  0
   16.6010   -4.2900  -22.2910 H   0  0  0  0  0  0  0  0  0  0  0  0
   18.3540   -4.0250  -22.6330 H   0  0  0  0  0  0  0  0  0  0  0  0
   18.0300   -4.0370  -20.3490 H   0  0  0  0  0  0  0  0  0  0  0  0
   18.4240   -3.3680  -18.0440 H   0  0  0  0  0  0  0  0  0  0  0  0
   18.9400    1.8850  -20.2350 H   0  0  0  0  0  0  0  0  0  0  0  0
   18.6170    4.2230  -19.5640 H   0  0  0  0  0  0  0  0  0  0  0  0
   15.4470    3.0150  -16.8960 H   0  0  0  0  0  0  0  0  0  0  0  0
   15.7470    0.7000  -17.5930 H   0  0  0  0  0  0  0  0  0  0  0  0
   15.9300    5.2820  -17.0530 H   0  0  0  0  0  0  0  0  0  0  0  0
   16.6350    6.9040  -19.1430 H   0  0  0  0  0  0  0  0  0  0  0  0
   18.2940    5.3430  -16.2480 H   0  0  0  0  0  0  0  0  0  0  0  0
   18.8300    5.9250  -17.8310 H   0  0  0  0  0  0  0  0  0  0  0  0
   17.7590    6.9240  -16.8470 H   0  0  0  0  0  0  0  0  0  0  0  0
   20.0250    0.1370  -17.1480 H   0  0  0  0  0  0  0  0  0  0  0  0
   20.1850    0.7510  -14.7640 H   0  0  0  0  0  0  0  0  0  0  0  0
   -2.1790   -6.6000   -0.3980 C   0  0  0  0  0  0  0  0  0  0  0  0
   -2.7450   -5.3160   -0.6470 O   0  0  0  0  0  0  0  0  0  0  0  0
   -1.6310   -7.0110   -1.2500 H   0  0  0  0  0  0  0  0  0  0  0  0
   -2.9840   -7.2860   -0.1250 H   0  0  0  0  0  0  0  0  0  0  0  0
   -1.5050   -6.4970    0.4580 H   0  0  0  0  0  0  0  0  0  0  0  0
   14.0710    7.1800  -22.7380 C   0  0  0  0  0  0  0  0  0  0  0  0
   14.1000    5.9980  -21.7610 C   0  0  0  0  0  0  0  0  0  0  0  0
   12.6890    5.8110  -21.1870 C   0  0  0  0  0  0  0  0  0  0  0  0
   14.5820    4.7490  -22.5110 C   0  0  0  0  0  0  0  0  0  0  0  0
   15.0610    6.3750  -20.7410 O   0  0  0  0  0  0  0  0  0  0  0  0
   15.2240    5.5600  -19.6730 C   0  0  0  0  0  0  0  0  0  0  0  0
   14.5270    4.5940  -19.4080 O   0  0  0  0  0  0  0  0  0  0  0  0
   13.3460    7.0190  -23.5430 H   0  0  0  0  0  0  0  0  0  0  0  0
   13.8100    8.1070  -22.2130 H   0  0  0  0  0  0  0  0  0  0  0  0
   15.0560    7.3440  -23.1890 H   0  0  0  0  0  0  0  0  0  0  0  0
   12.4420    6.6240  -20.4950 H   0  0  0  0  0  0  0  0  0  0  0  0
   12.5910    4.8750  -20.6290 H   0  0  0  0  0  0  0  0  0  0  0  0
   11.9360    5.7760  -21.9800 H   0  0  0  0  0  0  0  0  0  0  0  0
   15.5930    4.8970  -22.9060 H   0  0  0  0  0  0  0  0  0  0  0  0
   14.6330    3.8750  -21.8530 H   0  0  0  0  0  0  0  0  0  0  0  0
   13.9160    4.5020  -23.3440 H   0  0  0  0  0  0  0  0  0  0  0  0
  1  3  1  0  0  0  0
  1178  1  0  0  0  0
  1  2  2  0  0  0  0
  3  4  2  0  0  0  0
  4  5  1  0  0  0  0
  4 26  1  0  0  0  0
  5 27  1  0  0  0  0
  6  7  1  0  0  0  0
  5  6  2  0  0  0  0
  7 14  2  0  0  0  0
  7  8  1  0  0  0  0
  8  9  2  0  0  0  0
  9 10  1  0  0  0  0
  9 28  1  0  0  0  0
 10 11  1  0  0  0  0
 11 12  1  0  0  0  0
 12 29  1  0  0  0  0
 12 30  1  0  0  0  0
 13 32  1  0  0  0  0
 10 13  2  0  0  0  0
 13 14  1  0  0  0  0
  8 15  1  0  0  0  0
 15 20  1  0  0  0  0
 15 16  2  0  0  0  0
 16 17  1  0  0  0  0
 17 18  2  0  0  0  0
 18 19  1  0  0  0  0
 19 20  2  0  0  0  0
 19 36  1  0  0  0  0
 20 37  1  0  0  0  0
 18 21  1  0  0  0  0
 21 22  1  0  0  0  0
 21 38  1  0  0  0  0
 22 39  1  0  0  0  0
 21 23  1  0  0  0  0
  6 24  1  0  0  0  0
 24 25  2  0  0  0  0
  3 25  1  0  0  0  0
 12 31  1  0  0  0  0
 14 33  1  0  0  0  0
 16 34  1  0  0  0  0
 17 35  1  0  0  0  0
 23 40  1  0  0  0  0
 23 41  1  0  0  0  0
 23 42  1  0  0  0  0
 24 43  1  0  0  0  0
 25 44  1  0  0  0  0
 22 45  1  0  0  0  0
 45 47  1  0  0  0  0
 45 46  2  0  0  0  0
 47 48  2  0  0  0  0
 48 70  1  0  0  0  0
 48 49  1  0  0  0  0
 49 71  1  0  0  0  0
 49 50  2  0  0  0  0
 50 51  1  0  0  0  0
 51 58  2  0  0  0  0
 51 52  1  0  0  0  0
 52 53  2  0  0  0  0
 53 54  1  0  0  0  0
 54 57  2  0  0  0  0
 54 55  1  0  0  0  0
 55 56  1  0  0  0  0
 56 73  1  0  0  0  0
 56 74  1  0  0  0  0
 57 76  1  0  0  0  0
 58 77  1  0  0  0  0
 57 58  1  0  0  0  0
 52 59  1  0  0  0  0
 60 78  1  0  0  0  0
 59 60  2  0  0  0  0
 60 61  1  0  0  0  0
 61 62  2  0  0  0  0
 62 63  1  0  0  0  0
 63 64  2  0  0  0  0
 59 64  1  0  0  0  0
 64 81  1  0  0  0  0
 65 82  1  0  0  0  0
 62 65  1  0  0  0  0
 65 66  1  0  0  0  0
 66 83  1  0  0  0  0
 67 84  1  0  0  0  0
 65 67  1  0  0  0  0
 50 68  1  0  0  0  0
 47 69  1  0  0  0  0
 68 69  2  0  0  0  0
 53 72  1  0  0  0  0
 56 75  1  0  0  0  0
 61 79  1  0  0  0  0
 63 80  1  0  0  0  0
 67 85  1  0  0  0  0
 67 86  1  0  0  0  0
 68 87  1  0  0  0  0
 69 88  1  0  0  0  0
 66 89  1  0  0  0  0
 89 90  2  0  0  0  0
 91 92  2  0  0  0  0
 89 91  1  0  0  0  0
 92114  1  0  0  0  0
 92 93  1  0  0  0  0
 93 94  2  0  0  0  0
 94 95  1  0  0  0  0
 95102  2  0  0  0  0
 95 96  1  0  0  0  0
 96 97  2  0  0  0  0
 97 98  1  0  0  0  0
 98101  2  0  0  0  0
 98 99  1  0  0  0  0
 99100  1  0  0  0  0
100118  1  0  0  0  0
100119  1  0  0  0  0
101102  1  0  0  0  0
101120  1  0  0  0  0
102121  1  0  0  0  0
 96103  1  0  0  0  0
104122  1  0  0  0  0
103104  2  0  0  0  0
104105  1  0  0  0  0
105106  2  0  0  0  0
106107  1  0  0  0  0
107108  2  0  0  0  0
103108  1  0  0  0  0
108125  1  0  0  0  0
109126  1  0  0  0  0
109111  1  0  0  0  0
106109  1  0  0  0  0
109110  1  0  0  0  0
111128  1  0  0  0  0
 94112  1  0  0  0  0
112113  2  0  0  0  0
 91113  1  0  0  0  0
 93115  1  0  0  0  0
 97116  1  0  0  0  0
100117  1  0  0  0  0
105123  1  0  0  0  0
107124  1  0  0  0  0
110127  1  0  0  0  0
111129  1  0  0  0  0
111130  1  0  0  0  0
112131  1  0  0  0  0
113132  1  0  0  0  0
133134  2  0  0  0  0
110133  1  0  0  0  0
133135  1  0  0  0  0
135136  2  0  0  0  0
136158  1  0  0  0  0
136137  1  0  0  0  0
138156  1  0  0  0  0
137138  2  0  0  0  0
138139  1  0  0  0  0
140147  1  0  0  0  0
139140  1  0  0  0  0
140141  2  0  0  0  0
141142  1  0  0  0  0
142145  2  0  0  0  0
142143  1  0  0  0  0
144163  1  0  0  0  0
143144  1  0  0  0  0
144162  1  0  0  0  0
145146  1  0  0  0  0
139146  2  0  0  0  0
146165  1  0  0  0  0
147152  2  0  0  0  0
148149  2  0  0  0  0
147148  1  0  0  0  0
149150  1  0  0  0  0
150153  1  0  0  0  0
150151  2  0  0  0  0
151168  1  0  0  0  0
151152  1  0  0  0  0
152169  1  0  0  0  0
153155  1  0  0  0  0
153170  1  0  0  0  0
153154  1  0  0  0  0
155174  1  0  0  0  0
155172  1  0  0  0  0
156157  2  0  0  0  0
157176  1  0  0  0  0
135157  1  0  0  0  0
137159  1  0  0  0  0
141160  1  0  0  0  0
144161  1  0  0  0  0
145164  1  0  0  0  0
148166  1  0  0  0  0
149167  1  0  0  0  0
154171  1  0  0  0  0
155173  1  0  0  0  0
156175  1  0  0  0  0
177180  1  0  0  0  0
177181  1  0  0  0  0
177178  1  0  0  0  0
177179  1  0  0  0  0
182190  1  0  0  0  0
182183  1  0  0  0  0
183184  1  0  0  0  0
183186  1  0  0  0  0
184193  1  0  0  0  0
184192  1  0  0  0  0
185196  1  0  0  0  0
183185  1  0  0  0  0
186187  1  0  0  0  0
187188  2  0  0  0  0
154187  1  0  0  0  0
182189  1  0  0  0  0
182191  1  0  0  0  0
184194  1  0  0  0  0
185195  1  0  0  0  0
185197  1  0  0  0  0
M  END
> <atom.dprop.PartialCharge>
0.644650 -0.540970 -0.135480 -0.076860 -0.129810 -0.000230 -0.079630 0.007900 -0.144430 0.129440 -0.326250 0.112900 -0.203040 -0.081670 -0.040360 -0.109790 -0.122820 -0.093410 -0.122820 -0.109790 0.152810 -0.571880 -0.110470 -0.129810 -0.076860 0.152870 0.143680 0.158460 0.046280 0.046280 0.046280 0.141370 0.141150 0.138920 0.135160 0.135160 0.138920 0.082730 0.311390 0.045790 0.045790 0.045790 0.143680 0.152870 0.676280 -0.610040 -0.141780 -0.092250 -0.126030 -0.009620 -0.077150 0.007370 -0.145220 0.127870 -0.326080 0.112970 -0.203660 -0.082920 -0.039610 -0.111700 -0.120910 -0.091830 -0.120910 -0.111700 0.151090 -0.574340 -0.108280 -0.126030 -0.092250 0.147630 0.141430 0.157630 0.046290 0.046290 0.046290 0.141040 0.140360 0.135720 0.135640 0.135640 0.135720 0.085910 0.310500 0.044740 0.044740 0.044740 0.141430 0.147630 0.677980 -0.607510 -0.142910 -0.089850 -0.123330 -0.012020 -0.071530 0.012470 -0.146830 0.123990 -0.325690 0.113130 -0.206200 -0.086010 -0.044800 -0.113230 -0.113120 -0.103090 -0.113120 -0.113230 0.148570 -0.564050 -0.102370 -0.123330 -0.089850 0.148070 0.141070 0.156770 0.044650 0.044650 0.044650 0.138570 0.138200 0.133090 0.138740 0.138740 0.133090 0.084970 0.308360 0.043940 0.043940 0.043940 0.141070 0.148070 0.677640 -0.605940 -0.141060 -0.085380 -0.124930 -0.015900 -0.068000 0.009420 -0.145590 0.125500 -0.327150 0.113840 -0.208450 -0.088020 -0.037890 -0.112490 -0.114250 -0.109830 -0.114250 -0.112490 0.154990 -0.545470 -0.099160 -0.124930 -0.085380 0.150100 0.139580 0.155680 0.044890 0.044890 0.044890 0.136540 0.142900 0.136090 0.135730 0.135730 0.136090 0.085790 0.320220 0.045700 0.045700 0.045700 0.139580 0.150100 0.124320 -0.429890 0.051190 0.051190 0.051190 -0.115120 0.188590 -0.115120 -0.115120 -0.445590 0.750490 -0.601030 0.052110 0.052110 0.052110 0.052110 0.052110 0.052110 0.052110 0.052110 0.052110

$$$$
