mom_trimer.pdb
  -OEChem-07222512423D

153161  0     1  0  0  0  0  0999 V2000
   -2.6400    5.4660    0.8760 C   0  0  0  0  0  0  0  0  0  0  0  0
   -1.5080    4.6640    0.5660 O   0  0  0  0  0  0  0  0  0  0  0  0
   -1.7110    3.3180    0.4500 C   0  0  0  0  0  0  0  0  0  0  0  0
   -2.9210    2.6510    0.6100 C   0  0  0  0  0  0  0  0  0  0  0  0
   -2.9770    1.2580    0.4830 C   0  0  0  0  0  0  0  0  0  0  0  0
   -1.8280    0.4980    0.1860 C   0  0  0  0  0  0  0  0  0  0  0  0
   -1.9440   -0.9790    0.1160 C   0  0  0  0  0  0  0  0  0  0  0  0
   -2.8340   -1.5980   -0.7780 C   0  0  0  0  0  0  0  0  0  0  0  0
   -2.9250   -2.9980   -0.8550 C   0  0  0  0  0  0  0  0  0  0  0  0
   -3.9920   -3.5840   -1.7090 C   0  0  0  0  0  0  0  0  0  0  0  0
   -4.7310   -2.9240   -2.4210 O   0  0  0  0  0  0  0  0  0  0  0  0
   -2.0950   -3.7950   -0.0580 C   0  0  0  0  0  0  0  0  0  0  0  0
   -1.2130   -3.1990    0.8380 C   0  0  0  0  0  0  0  0  0  0  0  0
   -1.1540   -1.8070    0.9350 C   0  0  0  0  0  0  0  0  0  0  0  0
   -0.5970    1.1840   -0.0200 C   0  0  0  0  0  0  0  0  0  0  0  0
    0.6330    0.4840   -0.4260 C   0  0  0  0  0  0  0  0  0  0  0  0
    1.8100    0.5410    0.3360 C   0  0  0  0  0  0  0  0  0  0  0  0
    2.9390   -0.2300    0.0260 C   0  0  0  0  0  0  0  0  0  0  0  0
    4.2030   -0.1420    0.8600 C   0  0  1  0  0  0  0  0  0  0  0  0
    4.4790   -1.4270    1.6470 C   0  0  0  0  0  0  0  0  0  0  0  0
    5.4180    0.3120    0.1670 N   0  0  0  0  0  0  0  0  0  0  0  0
    2.8310   -1.1310   -1.0420 C   0  0  0  0  0  0  0  0  0  0  0  0
    1.7130   -1.1360   -1.8710 C   0  0  0  0  0  0  0  0  0  0  0  0
    0.6340   -0.3240   -1.5800 C   0  0  0  0  0  0  0  0  0  0  0  0
   -0.5670    2.5840    0.1340 C   0  0  0  0  0  0  0  0  0  0  0  0
   -3.0670    5.1890    1.8460 H   0  0  0  0  0  0  0  0  0  0  0  0
   -3.3910    5.4110    0.0810 H   0  0  0  0  0  0  0  0  0  0  0  0
   -2.3020    6.5040    0.9460 H   0  0  0  0  0  0  0  0  0  0  0  0
   -3.8410    3.1790    0.8390 H   0  0  0  0  0  0  0  0  0  0  0  0
   -3.9340    0.7600    0.6290 H   0  0  0  0  0  0  0  0  0  0  0  0
   -3.4700   -0.9870   -1.4170 H   0  0  0  0  0  0  0  0  0  0  0  0
   -2.1400   -4.8810   -0.1080 H   0  0  0  0  0  0  0  0  0  0  0  0
   -0.5770   -3.8150    1.4670 H   0  0  0  0  0  0  0  0  0  0  0  0
   -0.4610   -1.3640    1.6480 H   0  0  0  0  0  0  0  0  0  0  0  0
    1.8350    1.1940    1.2230 H   0  0  0  0  0  0  0  0  0  0  0  0
    4.0360    0.6450    1.6090 H   0  0  0  0  0  0  0  0  0  0  0  0
    5.3290   -1.2820    2.3250 H   0  0  0  0  0  0  0  0  0  0  0  0
    3.6130   -1.7170    2.2510 H   0  0  0  0  0  0  0  0  0  0  0  0
    4.7300   -2.2640    0.9870 H   0  0  0  0  0  0  0  0  0  0  0  0
    6.0430    0.7760    0.8050 H   0  0  0  0  0  0  0  0  0  0  0  0
    3.6350   -1.8180   -1.2790 H   0  0  0  0  0  0  0  0  0  0  0  0
    1.6800   -1.7950   -2.7450 H   0  0  0  0  0  0  0  0  0  0  0  0
   -0.2370   -0.3500   -2.2240 H   0  0  0  0  0  0  0  0  0  0  0  0
    0.3690    3.1210   -0.0180 H   0  0  0  0  0  0  0  0  0  0  0  0
   11.2670   -6.4630   -6.0380 C   0  0  0  0  0  0  0  0  0  0  0  0
   11.2260   -6.6280   -4.6270 O   0  0  0  0  0  0  0  0  0  0  0  0
   10.6750   -5.6120   -3.8960 C   0  0  0  0  0  0  0  0  0  0  0  0
   10.1320   -4.4360   -4.4020 C   0  0  0  0  0  0  0  0  0  0  0  0
    9.6250   -3.4660   -3.5290 C   0  0  0  0  0  0  0  0  0  0  0  0
    9.6430   -3.6440   -2.1310 C   0  0  0  0  0  0  0  0  0  0  0  0
    9.1620   -2.5380   -1.2640 C   0  0  0  0  0  0  0  0  0  0  0  0
    7.8800   -1.9830   -1.4160 C   0  0  0  0  0  0  0  0  0  0  0  0
    7.4130   -0.9470   -0.5800 C   0  0  0  0  0  0  0  0  0  0  0  0
    6.0310   -0.4380   -0.8240 C   0  0  0  0  0  0  0  0  0  0  0  0
    5.5000   -0.7270   -1.8870 O   0  0  0  0  0  0  0  0  0  0  0  0
    8.2330   -0.4810    0.4520 C   0  0  0  0  0  0  0  0  0  0  0  0
    9.5120   -1.0090    0.6100 C   0  0  0  0  0  0  0  0  0  0  0  0
    9.9770   -2.0060   -0.2510 C   0  0  0  0  0  0  0  0  0  0  0  0
   10.1520   -4.8720   -1.6160 C   0  0  0  0  0  0  0  0  0  0  0  0
   10.1170   -5.1980   -0.1740 C   0  0  0  0  0  0  0  0  0  0  0  0
   11.2870   -5.4970    0.5530 C   0  0  0  0  0  0  0  0  0  0  0  0
   11.2570   -5.6740    1.9490 C   0  0  0  0  0  0  0  0  0  0  0  0
   12.5300   -5.9860    2.7180 C   0  0  1  0  0  0  0  0  0  0  0  0
   12.9550   -4.8360    3.6380 C   0  0  0  0  0  0  0  0  0  0  0  0
   12.5660   -7.2640    3.4420 N   0  0  0  0  0  0  0  0  0  0  0  0
   10.0340   -5.4890    2.6030 C   0  0  0  0  0  0  0  0  0  0  0  0
    8.8540   -5.2960    1.8950 C   0  0  0  0  0  0  0  0  0  0  0  0
    8.8940   -5.1710    0.5130 C   0  0  0  0  0  0  0  0  0  0  0  0
   10.6740   -5.8240   -2.5160 C   0  0  0  0  0  0  0  0  0  0  0  0
   11.8660   -5.5900   -6.3190 H   0  0  0  0  0  0  0  0  0  0  0  0
   10.2580   -6.4040   -6.4580 H   0  0  0  0  0  0  0  0  0  0  0  0
   11.7530   -7.3480   -6.4620 H   0  0  0  0  0  0  0  0  0  0  0  0
   10.0920   -4.2330   -5.4670 H   0  0  0  0  0  0  0  0  0  0  0  0
    9.2230   -2.5470   -3.9530 H   0  0  0  0  0  0  0  0  0  0  0  0
    7.2160   -2.3840   -2.1840 H   0  0  0  0  0  0  0  0  0  0  0  0
    7.9150    0.2880    1.1440 H   0  0  0  0  0  0  0  0  0  0  0  0
   10.1540   -0.6480    1.4090 H   0  0  0  0  0  0  0  0  0  0  0  0
   10.9830   -2.3910   -0.1070 H   0  0  0  0  0  0  0  0  0  0  0  0
   12.2360   -5.5570    0.0230 H   0  0  0  0  0  0  0  0  0  0  0  0
   13.3340   -6.0980    1.9770 H   0  0  0  0  0  0  0  0  0  0  0  0
   13.9270   -5.0540    4.0960 H   0  0  0  0  0  0  0  0  0  0  0  0
   13.0480   -3.8970    3.0830 H   0  0  0  0  0  0  0  0  0  0  0  0
   12.2400   -4.6800    4.4530 H   0  0  0  0  0  0  0  0  0  0  0  0
   13.5070   -7.6110    3.5130 H   0  0  0  0  0  0  0  0  0  0  0  0
    9.9700   -5.5280    3.6860 H   0  0  0  0  0  0  0  0  0  0  0  0
    7.9070   -5.2410    2.4240 H   0  0  0  0  0  0  0  0  0  0  0  0
    7.9640   -5.0080   -0.0260 H   0  0  0  0  0  0  0  0  0  0  0  0
   11.0720   -6.7630   -2.1350 H   0  0  0  0  0  0  0  0  0  0  0  0
    7.7640   -8.4120   13.1380 C   0  0  0  0  0  0  0  0  0  0  0  0
    8.9130   -7.5880   12.9900 O   0  0  0  0  0  0  0  0  0  0  0  0
    9.6000   -7.6850   11.8130 C   0  0  0  0  0  0  0  0  0  0  0  0
    9.2590   -8.4780   10.7240 C   0  0  0  0  0  0  0  0  0  0  0  0
   10.0750   -8.4960    9.5880 C   0  0  0  0  0  0  0  0  0  0  0  0
   11.2520   -7.7250    9.5050 C   0  0  0  0  0  0  0  0  0  0  0  0
   12.1050   -7.8490    8.2970 C   0  0  0  0  0  0  0  0  0  0  0  0
   11.5790   -7.6620    7.0050 C   0  0  0  0  0  0  0  0  0  0  0  0
   12.3970   -7.7620    5.8590 C   0  0  0  0  0  0  0  0  0  0  0  0
   11.7500   -7.5210    4.5360 C   0  0  0  0  0  0  0  0  0  0  0  0
   10.5270   -7.5500    4.4830 O   0  0  0  0  0  0  0  0  0  0  0  0
   13.7620   -8.0180    6.0060 C   0  0  0  0  0  0  0  0  0  0  0  0
   14.2920   -8.2160    7.2760 C   0  0  0  0  0  0  0  0  0  0  0  0
   13.4700   -8.1520    8.4000 C   0  0  0  0  0  0  0  0  0  0  0  0
   11.5760   -6.8780   10.6020 C   0  0  0  0  0  0  0  0  0  0  0  0
   12.7210   -5.9430   10.5750 C   0  0  0  0  0  0  0  0  0  0  0  0
   13.7640   -6.0140   11.5280 C   0  0  0  0  0  0  0  0  0  0  0  0
   14.8800   -5.1590   11.4660 C   0  0  0  0  0  0  0  0  0  0  0  0
   16.0180   -5.2700   12.4840 C   0  0  1  0  0  0  0  0  0  0  0  0
   17.2060   -6.0700   11.9460 C   0  0  0  0  0  0  0  0  0  0  0  0
   16.4010   -3.9860   13.0770 N   0  0  0  0  0  0  0  0  0  0  0  0
   14.9200   -4.2370   10.4100 C   0  0  0  0  0  0  0  0  0  0  0  0
   13.8910   -4.1270    9.4780 C   0  0  0  0  0  0  0  0  0  0  0  0
   12.7930   -4.9660    9.5700 C   0  0  0  0  0  0  0  0  0  0  0  0
   10.7430   -6.8860   11.7390 C   0  0  0  0  0  0  0  0  0  0  0  0
    8.0210   -9.4730   13.0520 H   0  0  0  0  0  0  0  0  0  0  0  0
    6.9870   -8.1330   12.4190 H   0  0  0  0  0  0  0  0  0  0  0  0
    7.3630   -8.2480   14.1430 H   0  0  0  0  0  0  0  0  0  0  0  0
    8.3710   -9.1020   10.7230 H   0  0  0  0  0  0  0  0  0  0  0  0
    9.7900   -9.1390    8.7560 H   0  0  0  0  0  0  0  0  0  0  0  0
   10.5280   -7.4100    6.8910 H   0  0  0  0  0  0  0  0  0  0  0  0
   14.4370   -8.0750    5.1640 H   0  0  0  0  0  0  0  0  0  0  0  0
   15.3580   -8.4130    7.3970 H   0  0  0  0  0  0  0  0  0  0  0  0
   13.9180   -8.3190    9.3770 H   0  0  0  0  0  0  0  0  0  0  0  0
   13.7050   -6.7650   12.3140 H   0  0  0  0  0  0  0  0  0  0  0  0
   15.6270   -5.8330   13.3430 H   0  0  0  0  0  0  0  0  0  0  0  0
   18.0180   -6.0930   12.6830 H   0  0  0  0  0  0  0  0  0  0  0  0
   16.9170   -7.1000   11.7180 H   0  0  0  0  0  0  0  0  0  0  0  0
   17.6100   -5.6540   11.0180 H   0  0  0  0  0  0  0  0  0  0  0  0
   16.0710   -3.7690   14.0060 H   0  0  0  0  0  0  0  0  0  0  0  0
   15.7590   -3.5710   10.2910 H   0  0  0  0  0  0  0  0  0  0  0  0
   13.9530   -3.3910    8.6820 H   0  0  0  0  0  0  0  0  0  0  0  0
   11.9950   -4.8720    8.8360 H   0  0  0  0  0  0  0  0  0  0  0  0
   10.9780   -6.2400   12.5850 H   0  0  0  0  0  0  0  0  0  0  0  0
   -5.4190   -5.4400   -1.6580 C   0  0  0  0  0  0  0  0  0  0  0  0
   -4.1180   -4.9040   -1.4260 O   0  0  0  0  0  0  0  0  0  0  0  0
   -6.0330   -5.2130   -0.7810 H   0  0  0  0  0  0  0  0  0  0  0  0
   -5.3330   -6.5260   -1.7470 H   0  0  0  0  0  0  0  0  0  0  0  0
   -5.8910   -5.0470   -2.5620 H   0  0  0  0  0  0  0  0  0  0  0  0
   19.5660   -3.5340    9.9100 C   0  0  0  0  0  0  0  0  0  0  0  0
   18.6340   -2.5370   10.6170 C   0  0  0  0  0  0  0  0  0  0  0  0
   19.4800   -1.5350   11.4020 C   0  0  0  0  0  0  0  0  0  0  0  0
   17.7500   -1.8530    9.5750 C   0  0  0  0  0  0  0  0  0  0  0  0
   17.8220   -3.3830   11.4600 O   0  0  0  0  0  0  0  0  0  0  0  0
   17.0400   -2.9480   12.4640 C   0  0  0  0  0  0  0  0  0  0  0  0
   16.9230   -1.7920   12.8390 O   0  0  0  0  0  0  0  0  0  0  0  0
   20.2310   -3.0400    9.1980 H   0  0  0  0  0  0  0  0  0  0  0  0
   20.1760   -4.0780   10.6430 H   0  0  0  0  0  0  0  0  0  0  0  0
   18.9850   -4.2960    9.3770 H   0  0  0  0  0  0  0  0  0  0  0  0
   20.0480   -2.0370   12.1920 H   0  0  0  0  0  0  0  0  0  0  0  0
   18.8650   -0.7710   11.8870 H   0  0  0  0  0  0  0  0  0  0  0  0
   20.1810   -1.0130   10.7430 H   0  0  0  0  0  0  0  0  0  0  0  0
   17.1880   -2.5940    8.9960 H   0  0  0  0  0  0  0  0  0  0  0  0
   17.0110   -1.1980   10.0490 H   0  0  0  0  0  0  0  0  0  0  0  0
   18.3420   -1.2630    8.8690 H   0  0  0  0  0  0  0  0  0  0  0  0
  1 28  1  0  0  0  0
  1 26  1  0  0  0  0
  1  2  1  0  0  0  0
  2  3  1  0  0  0  0
  3  4  2  0  0  0  0
  4 29  1  0  0  0  0
  4  5  1  0  0  0  0
  5 30  1  0  0  0  0
  5  6  2  0  0  0  0
  6  7  1  0  0  0  0
  7 14  1  0  0  0  0
  7  8  2  0  0  0  0
  8  9  1  0  0  0  0
  9 12  2  0  0  0  0
 10134  1  0  0  0  0
  9 10  1  0  0  0  0
 10 11  2  0  0  0  0
 12 13  1  0  0  0  0
 13 14  2  0  0  0  0
 13 33  1  0  0  0  0
 14 34  1  0  0  0  0
 15 25  2  0  0  0  0
  6 15  1  0  0  0  0
 15 16  1  0  0  0  0
 16 17  2  0  0  0  0
 17 35  1  0  0  0  0
 17 18  1  0  0  0  0
 18 19  1  0  0  0  0
 19 36  1  0  0  0  0
 19 20  1  0  0  0  0
 20 38  1  0  0  0  0
 20 37  1  0  0  0  0
 21 40  1  0  0  0  0
 19 21  1  0  0  0  0
 18 22  2  0  0  0  0
 23 24  2  0  0  0  0
 22 23  1  0  0  0  0
 16 24  1  0  0  0  0
  3 25  1  0  0  0  0
  1 27  1  0  0  0  0
  8 31  1  0  0  0  0
 12 32  1  0  0  0  0
 20 39  1  0  0  0  0
 22 41  1  0  0  0  0
 23 42  1  0  0  0  0
 24 43  1  0  0  0  0
 25 44  1  0  0  0  0
 45 46  1  0  0  0  0
 46 47  1  0  0  0  0
 47 69  2  0  0  0  0
 47 48  1  0  0  0  0
 48 49  2  0  0  0  0
 49 50  1  0  0  0  0
 50 59  2  0  0  0  0
 50 51  1  0  0  0  0
 51 58  1  0  0  0  0
 51 52  2  0  0  0  0
 52 53  1  0  0  0  0
 53 56  2  0  0  0  0
 53 54  1  0  0  0  0
 21 54  1  0  0  0  0
 54 55  2  0  0  0  0
 56 57  1  0  0  0  0
 56 76  1  0  0  0  0
 57 77  1  0  0  0  0
 58 78  1  0  0  0  0
 57 58  2  0  0  0  0
 59 60  1  0  0  0  0
 60 68  1  0  0  0  0
 60 61  2  0  0  0  0
 61 62  1  0  0  0  0
 62 66  2  0  0  0  0
 62 63  1  0  0  0  0
 63 80  1  0  0  0  0
 63 65  1  0  0  0  0
 63 64  1  0  0  0  0
 64 81  1  0  0  0  0
 64 83  1  0  0  0  0
 65 84  1  0  0  0  0
 65 98  1  0  0  0  0
 66 85  1  0  0  0  0
 67 86  1  0  0  0  0
 66 67  1  0  0  0  0
 67 68  2  0  0  0  0
 69 88  1  0  0  0  0
 59 69  1  0  0  0  0
 45 70  1  0  0  0  0
 45 71  1  0  0  0  0
 45 72  1  0  0  0  0
 48 73  1  0  0  0  0
 49 74  1  0  0  0  0
 52 75  1  0  0  0  0
 61 79  1  0  0  0  0
 64 82  1  0  0  0  0
 68 87  1  0  0  0  0
 89116  1  0  0  0  0
 89 90  1  0  0  0  0
 90 91  1  0  0  0  0
 91 92  2  0  0  0  0
 92 93  1  0  0  0  0
 93 94  2  0  0  0  0
 94103  1  0  0  0  0
 95102  1  0  0  0  0
 94 95  1  0  0  0  0
 95 96  2  0  0  0  0
 97100  2  0  0  0  0
 96 97  1  0  0  0  0
 97 98  1  0  0  0  0
 98 99  2  0  0  0  0
100101  1  0  0  0  0
101121  1  0  0  0  0
101102  2  0  0  0  0
102122  1  0  0  0  0
103113  2  0  0  0  0
103104  1  0  0  0  0
104105  2  0  0  0  0
105123  1  0  0  0  0
105106  1  0  0  0  0
106107  1  0  0  0  0
107109  1  0  0  0  0
107124  1  0  0  0  0
107108  1  0  0  0  0
108125  1  0  0  0  0
109128  1  0  0  0  0
106110  2  0  0  0  0
111112  2  0  0  0  0
110111  1  0  0  0  0
104112  1  0  0  0  0
 91113  1  0  0  0  0
113132  1  0  0  0  0
 89114  1  0  0  0  0
 89115  1  0  0  0  0
 92117  1  0  0  0  0
 93118  1  0  0  0  0
 96119  1  0  0  0  0
100120  1  0  0  0  0
108126  1  0  0  0  0
108127  1  0  0  0  0
110129  1  0  0  0  0
111130  1  0  0  0  0
112131  1  0  0  0  0
133134  1  0  0  0  0
133135  1  0  0  0  0
133136  1  0  0  0  0
133137  1  0  0  0  0
138139  1  0  0  0  0
138146  1  0  0  0  0
139140  1  0  0  0  0
139142  1  0  0  0  0
140149  1  0  0  0  0
140148  1  0  0  0  0
141152  1  0  0  0  0
139141  1  0  0  0  0
142143  1  0  0  0  0
143144  2  0  0  0  0
109143  1  0  0  0  0
138145  1  0  0  0  0
138147  1  0  0  0  0
140150  1  0  0  0  0
141151  1  0  0  0  0
141153  1  0  0  0  0
M  END
> <atom.dprop.PartialCharge>
0.105780 -0.322620 0.117710 -0.192880 -0.081470 -0.072530 -0.045260 -0.057030 -0.131540 0.647700 -0.540070 -0.070910 -0.149330 -0.084670 0.004810 -0.046140 -0.105350 -0.110010 0.153480 -0.106320 -0.569690 -0.101380 -0.130400 -0.104360 -0.149620 0.046330 0.046330 0.046330 0.148460 0.141180 0.156460 0.153240 0.138070 0.137560 0.124550 0.086490 0.045410 0.045410 0.045410 0.303170 0.143080 0.135750 0.138600 0.156170 0.111370 -0.319830 0.128590 -0.148490 -0.091550 -0.070570 -0.046200 -0.095240 -0.138210 0.678800 -0.601880 -0.072140 -0.139000 -0.091140 0.002630 -0.041440 -0.118400 -0.095800 0.152310 -0.114130 -0.572400 -0.107200 -0.127850 -0.107720 -0.206210 0.046220 0.046220 0.046220 0.156390 0.144040 0.131400 0.159190 0.139670 0.140240 0.128060 0.087960 0.044660 0.044660 0.044660 0.308310 0.141210 0.137350 0.139170 0.145430 0.111250 -0.324600 0.124700 -0.155320 -0.086190 -0.069280 -0.041380 -0.092330 -0.144470 0.674870 -0.605040 -0.074070 -0.140970 -0.089430 0.008460 -0.047680 -0.104000 -0.108960 0.167040 -0.105370 -0.560780 -0.090780 -0.130820 -0.105590 -0.198870 0.045730 0.045730 0.045730 0.152670 0.143520 0.139280 0.157040 0.138970 0.140120 0.128620 0.074690 0.045610 0.045610 0.045610 0.327350 0.140950 0.135010 0.136780 0.147270 0.126370 -0.437690 0.050510 0.050510 0.050510 -0.114750 0.188190 -0.114750 -0.114750 -0.447170 0.751600 -0.595100 0.051620 0.051620 0.051620 0.051620 0.051620 0.051620 0.051620 0.051620 0.051620

$$$$
