mom_trimer.pdb
 OpenBabel09052512163D

153161  0  0  1  0  0  0  0  0999 V2000
   -2.6300    5.4630    0.8990 C   0  0  0  0  0  0  0  0  0  0  0  0
   -1.4920    4.6770    0.5690 O   0  0  0  0  0  0  0  0  0  0  0  0
   -1.6850    3.3260    0.4610 C   0  0  0  0  0  0  0  0  0  0  0  0
   -2.8880    2.6580    0.6630 C   0  0  0  0  0  0  0  0  0  0  0  0
   -2.9410    1.2680    0.5420 C   0  0  0  0  0  0  0  0  0  0  0  0
   -1.8020    0.5090    0.2090 C   0  0  0  0  0  0  0  0  0  0  0  0
   -1.9300   -0.9650    0.1560 C   0  0  0  0  0  0  0  0  0  0  0  0
   -2.8650   -1.5800   -0.6950 C   0  0  0  0  0  0  0  0  0  0  0  0
   -2.9900   -2.9760   -0.7450 C   0  0  0  0  0  0  0  0  0  0  0  0
   -4.0810   -3.5500   -1.5770 C   0  0  0  0  0  0  0  0  0  0  0  0
   -4.7870   -2.8840   -2.3180 O   0  0  0  0  0  0  0  0  0  0  0  0
   -2.1420   -3.7770    0.0290 C   0  0  0  0  0  0  0  0  0  0  0  0
   -1.2120   -3.1840    0.8800 C   0  0  0  0  0  0  0  0  0  0  0  0
   -1.1240   -1.7940    0.9570 C   0  0  0  0  0  0  0  0  0  0  0  0
   -0.5780    1.1920   -0.0400 C   0  0  0  0  0  0  0  0  0  0  0  0
    0.6500    0.4800   -0.4640 C   0  0  0  0  0  0  0  0  0  0  0  0
    1.8460    0.5620    0.2780 C   0  0  0  0  0  0  0  0  0  0  0  0
    2.9630   -0.2420   -0.0270 C   0  0  0  0  0  0  0  0  0  0  0  0
    4.2090   -0.1760    0.8380 C   0  0  1  0  0  0  0  0  0  0  0  0
    4.4460   -1.4800    1.6120 C   0  0  0  0  0  0  0  0  0  0  0  0
    5.4540    0.2710    0.1970 N   0  0  0  0  0  0  0  0  0  0  0  0
    2.8360   -1.1610   -1.0780 C   0  0  0  0  0  0  0  0  0  0  0  0
    1.6990   -1.1910   -1.8800 C   0  0  0  0  0  0  0  0  0  0  0  0
    0.6250   -0.3620   -1.5860 C   0  0  0  0  0  0  0  0  0  0  0  0
   -0.5470    2.5940    0.1100 C   0  0  0  0  0  0  0  0  0  0  0  0
   -3.0350    5.1850    1.8770 H   0  0  0  0  0  0  0  0  0  0  0  0
   -3.3960    5.3930    0.1190 H   0  0  0  0  0  0  0  0  0  0  0  0
   -2.3100    6.5080    0.9570 H   0  0  0  0  0  0  0  0  0  0  0  0
   -3.8000    3.1800    0.9230 H   0  0  0  0  0  0  0  0  0  0  0  0
   -3.8920    0.7680    0.7250 H   0  0  0  0  0  0  0  0  0  0  0  0
   -3.5080   -0.9630   -1.3230 H   0  0  0  0  0  0  0  0  0  0  0  0
   -2.2050   -4.8610   -0.0080 H   0  0  0  0  0  0  0  0  0  0  0  0
   -0.5570   -3.8030    1.4890 H   0  0  0  0  0  0  0  0  0  0  0  0
   -0.3980   -1.3520    1.6370 H   0  0  0  0  0  0  0  0  0  0  0  0
    1.8840    1.2300    1.1380 H   0  0  0  0  0  0  0  0  0  0  0  0
    4.0310    0.5960    1.5980 H   0  0  0  0  0  0  0  0  0  0  0  0
    5.2950   -1.3670    2.2950 H   0  0  0  0  0  0  0  0  0  0  0  0
    3.5670   -1.7480    2.2080 H   0  0  0  0  0  0  0  0  0  0  0  0
    4.6730   -2.3180    0.9460 H   0  0  0  0  0  0  0  0  0  0  0  0
    6.0730    0.6910    0.8720 H   0  0  0  0  0  0  0  0  0  0  0  0
    3.6340   -1.8630   -1.3030 H   0  0  0  0  0  0  0  0  0  0  0  0
    1.6480   -1.8770   -2.7200 H   0  0  0  0  0  0  0  0  0  0  0  0
   -0.2620   -0.4170   -2.2120 H   0  0  0  0  0  0  0  0  0  0  0  0
    0.3820    3.1340   -0.0710 H   0  0  0  0  0  0  0  0  0  0  0  0
   11.2030   -6.4820   -6.0360 C   0  0  0  0  0  0  0  0  0  0  0  0
   11.1850   -6.6490   -4.6230 O   0  0  0  0  0  0  0  0  0  0  0  0
   10.6540   -5.6250   -3.8860 C   0  0  0  0  0  0  0  0  0  0  0  0
   10.1440   -4.4370   -4.3940 C   0  0  0  0  0  0  0  0  0  0  0  0
    9.6650   -3.4530   -3.5240 C   0  0  0  0  0  0  0  0  0  0  0  0
    9.6730   -3.6320   -2.1260 C   0  0  0  0  0  0  0  0  0  0  0  0
    9.2160   -2.5100   -1.2690 C   0  0  0  0  0  0  0  0  0  0  0  0
    7.9390   -1.9470   -1.4290 C   0  0  0  0  0  0  0  0  0  0  0  0
    7.4770   -0.9080   -0.5960 C   0  0  0  0  0  0  0  0  0  0  0  0
    6.0670   -0.4440   -0.8230 C   0  0  0  0  0  0  0  0  0  0  0  0
    5.5270   -0.7570   -1.8740 O   0  0  0  0  0  0  0  0  0  0  0  0
    8.3080   -0.4250    0.4170 C   0  0  0  0  0  0  0  0  0  0  0  0
    9.5830   -0.9640    0.5830 C   0  0  0  0  0  0  0  0  0  0  0  0
   10.0340   -1.9840   -0.2580 C   0  0  0  0  0  0  0  0  0  0  0  0
   10.1410   -4.8720   -1.6040 C   0  0  0  0  0  0  0  0  0  0  0  0
   10.0830   -5.1920   -0.1590 C   0  0  0  0  0  0  0  0  0  0  0  0
   11.2380   -5.5240    0.5780 C   0  0  0  0  0  0  0  0  0  0  0  0
   11.2060   -5.6820    1.9800 C   0  0  0  0  0  0  0  0  0  0  0  0
   12.4880   -5.9470    2.7510 C   0  0  1  0  0  0  0  0  0  0  0  0
   12.8720   -4.7580    3.6400 C   0  0  0  0  0  0  0  0  0  0  0  0
   12.6000   -7.1980    3.5180 N   0  0  0  0  0  0  0  0  0  0  0  0
    9.9810   -5.4580    2.6270 C   0  0  0  0  0  0  0  0  0  0  0  0
    8.8120   -5.2180    1.9110 C   0  0  0  0  0  0  0  0  0  0  0  0
    8.8620   -5.1030    0.5280 C   0  0  0  0  0  0  0  0  0  0  0  0
   10.6410   -5.8380   -2.5030 C   0  0  0  0  0  0  0  0  0  0  0  0
   11.7900   -5.6050   -6.3280 H   0  0  0  0  0  0  0  0  0  0  0  0
   10.1860   -6.4280   -6.4370 H   0  0  0  0  0  0  0  0  0  0  0  0
   11.6870   -7.3620   -6.4710 H   0  0  0  0  0  0  0  0  0  0  0  0
   10.1100   -4.2320   -5.4590 H   0  0  0  0  0  0  0  0  0  0  0  0
    9.2900   -2.5230   -3.9510 H   0  0  0  0  0  0  0  0  0  0  0  0
    7.2750   -2.3470   -2.1950 H   0  0  0  0  0  0  0  0  0  0  0  0
    8.0020    0.3650    1.0930 H   0  0  0  0  0  0  0  0  0  0  0  0
   10.2310   -0.5970    1.3760 H   0  0  0  0  0  0  0  0  0  0  0  0
   11.0330   -2.3870   -0.1030 H   0  0  0  0  0  0  0  0  0  0  0  0
   12.1860   -5.6140    0.0520 H   0  0  0  0  0  0  0  0  0  0  0  0
   13.2910   -6.0430    2.0080 H   0  0  0  0  0  0  0  0  0  0  0  0
   13.8590   -4.9220    4.0890 H   0  0  0  0  0  0  0  0  0  0  0  0
   12.9160   -3.8290    3.0620 H   0  0  0  0  0  0  0  0  0  0  0  0
   12.1620   -4.6170    4.4610 H   0  0  0  0  0  0  0  0  0  0  0  0
   13.5650   -7.4360    3.6700 H   0  0  0  0  0  0  0  0  0  0  0  0
    9.9130   -5.4840    3.7120 H   0  0  0  0  0  0  0  0  0  0  0  0
    7.8690   -5.1010    2.4350 H   0  0  0  0  0  0  0  0  0  0  0  0
    7.9420   -4.8970   -0.0140 H   0  0  0  0  0  0  0  0  0  0  0  0
   11.0130   -6.7880   -2.1220 H   0  0  0  0  0  0  0  0  0  0  0  0
    7.2040   -8.3990   12.8150 C   0  0  0  0  0  0  0  0  0  0  0  0
    8.4060   -7.6420   12.7660 O   0  0  0  0  0  0  0  0  0  0  0  0
    9.1710   -7.7690   11.6410 C   0  0  0  0  0  0  0  0  0  0  0  0
    8.9010   -8.5840   10.5480 C   0  0  0  0  0  0  0  0  0  0  0  0
    9.7930   -8.6340    9.4710 C   0  0  0  0  0  0  0  0  0  0  0  0
   10.9770   -7.8720    9.4530 C   0  0  0  0  0  0  0  0  0  0  0  0
   11.8980   -8.0100    8.2970 C   0  0  0  0  0  0  0  0  0  0  0  0
   11.4540   -7.7710    6.9860 C   0  0  0  0  0  0  0  0  0  0  0  0
   12.3150   -7.8830    5.8740 C   0  0  0  0  0  0  0  0  0  0  0  0
   11.7330   -7.5450    4.5390 C   0  0  0  0  0  0  0  0  0  0  0  0
   10.5120   -7.5530    4.4330 O   0  0  0  0  0  0  0  0  0  0  0  0
   13.6490   -8.2400    6.0810 C   0  0  0  0  0  0  0  0  0  0  0  0
   14.1080   -8.4830    7.3770 C   0  0  0  0  0  0  0  0  0  0  0  0
   13.2410   -8.3770    8.4680 C   0  0  0  0  0  0  0  0  0  0  0  0
   11.2340   -7.0130   10.5550 C   0  0  0  0  0  0  0  0  0  0  0  0
   12.3970   -6.1100   10.5990 C   0  0  0  0  0  0  0  0  0  0  0  0
   13.3720   -6.2240   11.6120 C   0  0  0  0  0  0  0  0  0  0  0  0
   14.5170   -5.4120   11.6190 C   0  0  0  0  0  0  0  0  0  0  0  0
   15.5890   -5.5810   12.6910 C   0  0  1  0  0  0  0  0  0  0  0  0
   16.7660   -6.4190   12.1840 C   0  0  0  0  0  0  0  0  0  0  0  0
   15.9650   -4.3220   13.3320 N   0  0  0  0  0  0  0  0  0  0  0  0
   14.6490   -4.4820   10.5810 C   0  0  0  0  0  0  0  0  0  0  0  0
   13.6860   -4.3290    9.5890 C   0  0  0  0  0  0  0  0  0  0  0  0
   12.5590   -5.1320    9.6060 C   0  0  0  0  0  0  0  0  0  0  0  0
   10.3260   -6.9870   11.6330 C   0  0  0  0  0  0  0  0  0  0  0  0
    7.4030   -9.4720   12.7230 H   0  0  0  0  0  0  0  0  0  0  0  0
    6.4990   -8.0600   12.0500 H   0  0  0  0  0  0  0  0  0  0  0  0
    6.7440   -8.2320   13.7940 H   0  0  0  0  0  0  0  0  0  0  0  0
    8.0100   -9.2010   10.4990 H   0  0  0  0  0  0  0  0  0  0  0  0
    9.5610   -9.2930    8.6350 H   0  0  0  0  0  0  0  0  0  0  0  0
   10.4200   -7.4660    6.8260 H   0  0  0  0  0  0  0  0  0  0  0  0
   14.3520   -8.3500    5.2640 H   0  0  0  0  0  0  0  0  0  0  0  0
   15.1480   -8.7550    7.5450 H   0  0  0  0  0  0  0  0  0  0  0  0
   13.6270   -8.5740    9.4670 H   0  0  0  0  0  0  0  0  0  0  0  0
   13.2380   -6.9720   12.3920 H   0  0  0  0  0  0  0  0  0  0  0  0
   15.1370   -6.1550   13.5090 H   0  0  0  0  0  0  0  0  0  0  0  0
   17.5390   -6.5100   12.9610 H   0  0  0  0  0  0  0  0  0  0  0  0
   16.4460   -7.4130   11.9000 H   0  0  0  0  0  0  0  0  0  0  0  0
   17.2400   -5.9820   11.2940 H   0  0  0  0  0  0  0  0  0  0  0  0
   16.2340   -4.4070   14.3010 H   0  0  0  0  0  0  0  0  0  0  0  0
   15.5130   -3.8440   10.5320 H   0  0  0  0  0  0  0  0  0  0  0  0
   13.8230   -3.5880    8.8060 H   0  0  0  0  0  0  0  0  0  0  0  0
   11.8110   -5.0100    8.8260 H   0  0  0  0  0  0  0  0  0  0  0  0
   10.5120   -6.3260   12.4790 H   0  0  0  0  0  0  0  0  0  0  0  0
   -5.4270   -5.4670   -1.7990 C   0  0  0  0  0  0  0  0  0  0  0  0
   -4.2340   -4.8670   -1.2950 O   0  0  0  0  0  0  0  0  0  0  0  0
   -6.2120   -5.3630   -1.0430 H   0  0  0  0  0  0  0  0  0  0  0  0
   -5.2340   -6.5320   -1.9540 H   0  0  0  0  0  0  0  0  0  0  0  0
   -5.7580   -5.0340   -2.7480 H   0  0  0  0  0  0  0  0  0  0  0  0
   19.4070   -3.8190   10.4170 C   0  0  0  0  0  0  0  0  0  0  0  0
   18.3770   -2.8690   11.0500 C   0  0  0  0  0  0  0  0  0  0  0  0
   19.1120   -1.7740   11.8240 C   0  0  0  0  0  0  0  0  0  0  0  0
   17.5060   -2.2820    9.9390 C   0  0  0  0  0  0  0  0  0  0  0  0
   17.5920   -3.7380   11.8990 O   0  0  0  0  0  0  0  0  0  0  0  0
   16.6440   -3.2900   12.7450 C   0  0  0  0  0  0  0  0  0  0  0  0
   16.4170   -2.1190   13.0060 O   0  0  0  0  0  0  0  0  0  0  0  0
   20.0500   -3.3020    9.6980 H   0  0  0  0  0  0  0  0  0  0  0  0
   20.0370   -4.2790   11.1860 H   0  0  0  0  0  0  0  0  0  0  0  0
   18.9040   -4.6450    9.9010 H   0  0  0  0  0  0  0  0  0  0  0  0
   19.6630   -2.1910   12.6740 H   0  0  0  0  0  0  0  0  0  0  0  0
   18.4220   -1.0260   12.2250 H   0  0  0  0  0  0  0  0  0  0  0  0
   19.8180   -1.2440   11.1750 H   0  0  0  0  0  0  0  0  0  0  0  0
   17.0480   -3.0790    9.3440 H   0  0  0  0  0  0  0  0  0  0  0  0
   16.6910   -1.6750   10.3460 H   0  0  0  0  0  0  0  0  0  0  0  0
   18.0910   -1.6620    9.2530 H   0  0  0  0  0  0  0  0  0  0  0  0
  1 28  1  0  0  0  0
  1 26  1  0  0  0  0
  2  1  1  0  0  0  0
  3  2  1  0  0  0  0
  3  4  1  0  0  0  0
  4 29  1  0  0  0  0
  5  4  2  0  0  0  0
  5 30  1  0  0  0  0
  6  5  1  0  0  0  0
  7  6  1  0  0  0  0
  7 14  1  0  0  0  0
  8  7  2  0  0  0  0
  9  8  1  0  0  0  0
  9 12  2  0  0  0  0
 10134  1  0  0  0  0
 10  9  1  0  0  0  0
 11 10  2  0  0  0  0
 12 13  1  0  0  0  0
 13 14  2  0  0  0  0
 13 33  1  0  0  0  0
 14 34  1  0  0  0  0
 15 25  1  0  0  0  0
 15  6  2  0  0  0  0
 16 15  1  0  0  0  0
 16 17  1  0  0  0  0
 17 35  1  0  0  0  0
 18 17  2  0  0  0  0
 18 19  1  0  0  0  0
 19 36  1  1  0  0  0
 19 20  1  0  0  0  0
 20 38  1  0  0  0  0
 20 37  1  0  0  0  0
 21 19  1  0  0  0  0
 21 40  1  0  0  0  0
 22 18  1  0  0  0  0
 23 24  1  0  0  0  0
 23 22  2  0  0  0  0
 24 16  2  0  0  0  0
 25  3  2  0  0  0  0
 27  1  1  0  0  0  0
 31  8  1  0  0  0  0
 32 12  1  0  0  0  0
 39 20  1  0  0  0  0
 41 22  1  0  0  0  0
 42 23  1  0  0  0  0
 43 24  1  0  0  0  0
 44 25  1  0  0  0  0
 45 46  1  0  0  0  0
 46 47  1  0  0  0  0
 47 69  1  0  0  0  0
 48 47  2  0  0  0  0
 48 49  1  0  0  0  0
 49 50  2  0  0  0  0
 50 59  1  0  0  0  0
 50 51  1  0  0  0  0
 51 58  1  0  0  0  0
 52 51  2  0  0  0  0
 52 53  1  0  0  0  0
 53 56  2  0  0  0  0
 54 53  1  0  0  0  0
 54 21  1  0  0  0  0
 55 54  2  0  0  0  0
 56 57  1  0  0  0  0
 56 76  1  0  0  0  0
 57 77  1  0  0  0  0
 58 78  1  0  0  0  0
 58 57  2  0  0  0  0
 59 60  1  0  0  0  0
 60 68  2  0  0  0  0
 60 61  1  0  0  0  0
 61 62  2  0  0  0  0
 62 66  1  0  0  0  0
 62 63  1  0  0  0  0
 63 80  1  6  0  0  0
 63 65  1  0  0  0  0
 63 64  1  0  0  0  0
 64 81  1  0  0  0  0
 64 83  1  0  0  0  0
 65 84  1  0  0  0  0
 65 98  1  0  0  0  0
 66 85  1  0  0  0  0
 67 86  1  0  0  0  0
 67 66  2  0  0  0  0
 68 67  1  0  0  0  0
 69 88  1  0  0  0  0
 69 59  2  0  0  0  0
 70 45  1  0  0  0  0
 71 45  1  0  0  0  0
 72 45  1  0  0  0  0
 73 48  1  0  0  0  0
 74 49  1  0  0  0  0
 75 52  1  0  0  0  0
 79 61  1  0  0  0  0
 82 64  1  0  0  0  0
 87 68  1  0  0  0  0
 89116  1  0  0  0  0
 90 89  1  0  0  0  0
 91 90  1  0  0  0  0
 92 91  2  0  0  0  0
 93 92  1  0  0  0  0
 94 93  2  0  0  0  0
 94103  1  0  0  0  0
 95102  1  0  0  0  0
 95 94  1  0  0  0  0
 96 95  2  0  0  0  0
 97100  2  0  0  0  0
 97 96  1  0  0  0  0
 98 97  1  0  0  0  0
 99 98  2  0  0  0  0
100101  1  0  0  0  0
101121  1  0  0  0  0
101102  2  0  0  0  0
102122  1  0  0  0  0
103104  1  0  0  0  0
103113  2  0  0  0  0
104105  1  0  0  0  0
105106  2  0  0  0  0
105123  1  0  0  0  0
106107  1  0  0  0  0
107109  1  0  0  0  0
107124  1  1  0  0  0
108107  1  0  0  0  0
108125  1  0  0  0  0
109128  1  0  0  0  0
110106  1  0  0  0  0
111112  1  0  0  0  0
111110  2  0  0  0  0
112104  2  0  0  0  0
113 91  1  0  0  0  0
113132  1  0  0  0  0
114 89  1  0  0  0  0
115 89  1  0  0  0  0
117 92  1  0  0  0  0
118 93  1  0  0  0  0
119 96  1  0  0  0  0
120100  1  0  0  0  0
126108  1  0  0  0  0
127108  1  0  0  0  0
129110  1  0  0  0  0
130111  1  0  0  0  0
131112  1  0  0  0  0
133134  1  0  0  0  0
133135  1  0  0  0  0
136133  1  0  0  0  0
137133  1  0  0  0  0
138139  1  0  0  0  0
138146  1  0  0  0  0
139140  1  0  0  0  0
139142  1  0  0  0  0
140149  1  0  0  0  0
140148  1  0  0  0  0
141152  1  0  0  0  0
141139  1  0  0  0  0
142143  1  0  0  0  0
143144  2  0  0  0  0
143109  1  0  0  0  0
145138  1  0  0  0  0
147138  1  0  0  0  0
150140  1  0  0  0  0
151141  1  0  0  0  0
153141  1  0  0  0  0
M  END
