mom_trimer.pdb
 OpenBabel09092515003D

153161  0  0  1  0  0  0  0  0999 V2000
   -2.6190    5.4790    0.8630 C   0  0  0  0  0  0  0  0  0  0  0  0
   -1.4940    4.6680    0.5550 O   0  0  0  0  0  0  0  0  0  0  0  0
   -1.7060    3.3220    0.4560 C   0  0  0  0  0  0  0  0  0  0  0  0
   -2.9170    2.6610    0.6310 C   0  0  0  0  0  0  0  0  0  0  0  0
   -2.9790    1.2670    0.5120 C   0  0  0  0  0  0  0  0  0  0  0  0
   -1.8370    0.5010    0.2110 C   0  0  0  0  0  0  0  0  0  0  0  0
   -1.9600   -0.9760    0.1400 C   0  0  0  0  0  0  0  0  0  0  0  0
   -2.8490   -1.5880   -0.7610 C   0  0  0  0  0  0  0  0  0  0  0  0
   -2.9350   -2.9880   -0.8520 C   0  0  0  0  0  0  0  0  0  0  0  0
   -3.9920   -3.5730   -1.7200 C   0  0  0  0  0  0  0  0  0  0  0  0
   -4.7480   -2.9100   -2.4120 O   0  0  0  0  0  0  0  0  0  0  0  0
   -2.1110   -3.7900   -0.0530 C   0  0  0  0  0  0  0  0  0  0  0  0
   -1.2350   -3.1980    0.8520 C   0  0  0  0  0  0  0  0  0  0  0  0
   -1.1750   -1.8090    0.9570 C   0  0  0  0  0  0  0  0  0  0  0  0
   -0.6050    1.1810   -0.0020 C   0  0  0  0  0  0  0  0  0  0  0  0
    0.6280    0.4720   -0.4090 C   0  0  0  0  0  0  0  0  0  0  0  0
    1.8090    0.5510    0.3570 C   0  0  0  0  0  0  0  0  0  0  0  0
    2.9380   -0.2240    0.0360 C   0  0  0  0  0  0  0  0  0  0  0  0
    4.2040   -0.1310    0.8630 C   0  0  1  0  0  0  0  0  0  0  0  0
    4.4830   -1.4190    1.6490 C   0  0  0  0  0  0  0  0  0  0  0  0
    5.4130    0.3140    0.1550 N   0  0  0  0  0  0  0  0  0  0  0  0
    2.8260   -1.1250   -1.0320 C   0  0  0  0  0  0  0  0  0  0  0  0
    1.7050   -1.1430   -1.8560 C   0  0  0  0  0  0  0  0  0  0  0  0
    0.6230   -0.3340   -1.5530 C   0  0  0  0  0  0  0  0  0  0  0  0
   -0.5660    2.5810    0.1390 C   0  0  0  0  0  0  0  0  0  0  0  0
   -3.0410    5.2170    1.8380 H   0  0  0  0  0  0  0  0  0  0  0  0
   -3.3750    5.4210    0.0730 H   0  0  0  0  0  0  0  0  0  0  0  0
   -2.2740    6.5160    0.9190 H   0  0  0  0  0  0  0  0  0  0  0  0
   -3.8330    3.1940    0.8630 H   0  0  0  0  0  0  0  0  0  0  0  0
   -3.9370    0.7740    0.6670 H   0  0  0  0  0  0  0  0  0  0  0  0
   -3.4810   -0.9720   -1.3990 H   0  0  0  0  0  0  0  0  0  0  0  0
   -2.1560   -4.8750   -0.1080 H   0  0  0  0  0  0  0  0  0  0  0  0
   -0.6030   -3.8200    1.4810 H   0  0  0  0  0  0  0  0  0  0  0  0
   -0.4810   -1.3700    1.6730 H   0  0  0  0  0  0  0  0  0  0  0  0
    1.8330    1.2010    1.2300 H   0  0  0  0  0  0  0  0  0  0  0  0
    4.0460    0.6570    1.6120 H   0  0  0  0  0  0  0  0  0  0  0  0
    5.3430   -1.2800    2.3150 H   0  0  0  0  0  0  0  0  0  0  0  0
    3.6220   -1.7020    2.2640 H   0  0  0  0  0  0  0  0  0  0  0  0
    4.7170   -2.2580    0.9860 H   0  0  0  0  0  0  0  0  0  0  0  0
    6.0410    0.7880    0.7810 H   0  0  0  0  0  0  0  0  0  0  0  0
    3.6300   -1.8140   -1.2630 H   0  0  0  0  0  0  0  0  0  0  0  0
    1.6850   -1.7970   -2.7210 H   0  0  0  0  0  0  0  0  0  0  0  0
   -0.2520   -0.3710   -2.1980 H   0  0  0  0  0  0  0  0  0  0  0  0
    0.3700    3.1120   -0.0240 H   0  0  0  0  0  0  0  0  0  0  0  0
   11.2520   -6.4750   -6.0280 C   0  0  0  0  0  0  0  0  0  0  0  0
   11.2360   -6.6230   -4.6150 O   0  0  0  0  0  0  0  0  0  0  0  0
   10.6810   -5.6090   -3.8860 C   0  0  0  0  0  0  0  0  0  0  0  0
   10.1300   -4.4350   -4.3910 C   0  0  0  0  0  0  0  0  0  0  0  0
    9.6160   -3.4670   -3.5190 C   0  0  0  0  0  0  0  0  0  0  0  0
    9.6360   -3.6470   -2.1230 C   0  0  0  0  0  0  0  0  0  0  0  0
    9.1500   -2.5450   -1.2550 C   0  0  0  0  0  0  0  0  0  0  0  0
    7.8630   -2.0040   -1.4050 C   0  0  0  0  0  0  0  0  0  0  0  0
    7.3970   -0.9620   -0.5760 C   0  0  0  0  0  0  0  0  0  0  0  0
    6.0180   -0.4520   -0.8290 C   0  0  0  0  0  0  0  0  0  0  0  0
    5.4860   -0.7450   -1.8930 O   0  0  0  0  0  0  0  0  0  0  0  0
    8.2160   -0.4900    0.4520 C   0  0  0  0  0  0  0  0  0  0  0  0
    9.4980   -1.0090    0.6100 C   0  0  0  0  0  0  0  0  0  0  0  0
    9.9650   -2.0060   -0.2470 C   0  0  0  0  0  0  0  0  0  0  0  0
   10.1540   -4.8700   -1.6090 C   0  0  0  0  0  0  0  0  0  0  0  0
   10.1220   -5.1970   -0.1670 C   0  0  0  0  0  0  0  0  0  0  0  0
   11.2950   -5.4920    0.5550 C   0  0  0  0  0  0  0  0  0  0  0  0
   11.2650   -5.6790    1.9480 C   0  0  0  0  0  0  0  0  0  0  0  0
   12.5410   -6.0070    2.7080 C   0  0  1  0  0  0  0  0  0  0  0  0
   12.9710   -4.8590    3.6280 C   0  0  0  0  0  0  0  0  0  0  0  0
   12.5590   -7.2920    3.4330 N   0  0  0  0  0  0  0  0  0  0  0  0
   10.0500   -5.5000    2.6030 C   0  0  0  0  0  0  0  0  0  0  0  0
    8.8640   -5.3050    1.9020 C   0  0  0  0  0  0  0  0  0  0  0  0
    8.9000   -5.1710    0.5220 C   0  0  0  0  0  0  0  0  0  0  0  0
   10.6840   -5.8190   -2.5050 C   0  0  0  0  0  0  0  0  0  0  0  0
   11.8500   -5.6090   -6.3290 H   0  0  0  0  0  0  0  0  0  0  0  0
   10.2350   -6.4150   -6.4300 H   0  0  0  0  0  0  0  0  0  0  0  0
   11.7240   -7.3680   -6.4520 H   0  0  0  0  0  0  0  0  0  0  0  0
   10.0860   -4.2330   -5.4550 H   0  0  0  0  0  0  0  0  0  0  0  0
    9.2070   -2.5510   -3.9440 H   0  0  0  0  0  0  0  0  0  0  0  0
    7.1990   -2.4120   -2.1690 H   0  0  0  0  0  0  0  0  0  0  0  0
    7.8980    0.2820    1.1410 H   0  0  0  0  0  0  0  0  0  0  0  0
   10.1410   -0.6390    1.4050 H   0  0  0  0  0  0  0  0  0  0  0  0
   10.9760   -2.3840   -0.1080 H   0  0  0  0  0  0  0  0  0  0  0  0
   12.2430   -5.5450    0.0190 H   0  0  0  0  0  0  0  0  0  0  0  0
   13.3410   -6.1210    1.9630 H   0  0  0  0  0  0  0  0  0  0  0  0
   13.9400   -5.0810    4.0860 H   0  0  0  0  0  0  0  0  0  0  0  0
   13.0680   -3.9210    3.0700 H   0  0  0  0  0  0  0  0  0  0  0  0
   12.2540   -4.6960    4.4390 H   0  0  0  0  0  0  0  0  0  0  0  0
   13.5140   -7.6390    3.4940 H   0  0  0  0  0  0  0  0  0  0  0  0
    9.9860   -5.5530    3.6880 H   0  0  0  0  0  0  0  0  0  0  0  0
    7.9220   -5.2600    2.4350 H   0  0  0  0  0  0  0  0  0  0  0  0
    7.9680   -5.0050   -0.0120 H   0  0  0  0  0  0  0  0  0  0  0  0
   11.0940   -6.7530   -2.1250 H   0  0  0  0  0  0  0  0  0  0  0  0
    7.7570   -8.4150   13.1280 C   0  0  0  0  0  0  0  0  0  0  0  0
    8.9230   -7.6130   12.9940 O   0  0  0  0  0  0  0  0  0  0  0  0
    9.6050   -7.6970   11.8120 C   0  0  0  0  0  0  0  0  0  0  0  0
    9.2640   -8.4830   10.7180 C   0  0  0  0  0  0  0  0  0  0  0  0
   10.0760   -8.4870    9.5770 C   0  0  0  0  0  0  0  0  0  0  0  0
   11.2480   -7.7080    9.4960 C   0  0  0  0  0  0  0  0  0  0  0  0
   12.1060   -7.8220    8.2880 C   0  0  0  0  0  0  0  0  0  0  0  0
   11.5910   -7.6370    6.9980 C   0  0  0  0  0  0  0  0  0  0  0  0
   12.4050   -7.7390    5.8550 C   0  0  0  0  0  0  0  0  0  0  0  0
   11.7490   -7.5300    4.5160 C   0  0  0  0  0  0  0  0  0  0  0  0
   10.5270   -7.5770    4.4680 O   0  0  0  0  0  0  0  0  0  0  0  0
   13.7770   -7.9870    6.0060 C   0  0  0  0  0  0  0  0  0  0  0  0
   14.3010   -8.1810    7.2770 C   0  0  0  0  0  0  0  0  0  0  0  0
   13.4720   -8.1250    8.3990 C   0  0  0  0  0  0  0  0  0  0  0  0
   11.5720   -6.8690   10.6000 C   0  0  0  0  0  0  0  0  0  0  0  0
   12.7150   -5.9320   10.5770 C   0  0  0  0  0  0  0  0  0  0  0  0
   13.7550   -6.0030   11.5320 C   0  0  0  0  0  0  0  0  0  0  0  0
   14.8710   -5.1470   11.4710 C   0  0  0  0  0  0  0  0  0  0  0  0
   16.0120   -5.2540   12.4860 C   0  0  1  0  0  0  0  0  0  0  0  0
   17.2000   -6.0460   11.9350 C   0  0  0  0  0  0  0  0  0  0  0  0
   16.3960   -3.9660   13.0700 N   0  0  0  0  0  0  0  0  0  0  0  0
   14.9120   -4.2280   10.4140 C   0  0  0  0  0  0  0  0  0  0  0  0
   13.8880   -4.1190    9.4780 C   0  0  0  0  0  0  0  0  0  0  0  0
   12.7890   -4.9580    9.5700 C   0  0  0  0  0  0  0  0  0  0  0  0
   10.7440   -6.8930   11.7410 C   0  0  0  0  0  0  0  0  0  0  0  0
    7.9930   -9.4810   13.0370 H   0  0  0  0  0  0  0  0  0  0  0  0
    6.9900   -8.1160   12.4070 H   0  0  0  0  0  0  0  0  0  0  0  0
    7.3540   -8.2500   14.1320 H   0  0  0  0  0  0  0  0  0  0  0  0
    8.3800   -9.1120   10.7170 H   0  0  0  0  0  0  0  0  0  0  0  0
    9.7920   -9.1270    8.7420 H   0  0  0  0  0  0  0  0  0  0  0  0
   10.5360   -7.3820    6.8740 H   0  0  0  0  0  0  0  0  0  0  0  0
   14.4530   -8.0390    5.1620 H   0  0  0  0  0  0  0  0  0  0  0  0
   15.3610   -8.3820    7.4010 H   0  0  0  0  0  0  0  0  0  0  0  0
   13.9110   -8.3030    9.3780 H   0  0  0  0  0  0  0  0  0  0  0  0
   13.6950   -6.7530   12.3200 H   0  0  0  0  0  0  0  0  0  0  0  0
   15.6280   -5.8180   13.3470 H   0  0  0  0  0  0  0  0  0  0  0  0
   18.0210   -6.0620   12.6610 H   0  0  0  0  0  0  0  0  0  0  0  0
   16.9160   -7.0780   11.7100 H   0  0  0  0  0  0  0  0  0  0  0  0
   17.5860   -5.6290   11.0000 H   0  0  0  0  0  0  0  0  0  0  0  0
   16.1430   -3.7740   14.0290 H   0  0  0  0  0  0  0  0  0  0  0  0
   15.7500   -3.5610   10.2990 H   0  0  0  0  0  0  0  0  0  0  0  0
   13.9540   -3.3850    8.6810 H   0  0  0  0  0  0  0  0  0  0  0  0
   11.9950   -4.8660    8.8320 H   0  0  0  0  0  0  0  0  0  0  0  0
   10.9800   -6.2540   12.5910 H   0  0  0  0  0  0  0  0  0  0  0  0
   -5.3940   -5.4430   -1.6550 C   0  0  0  0  0  0  0  0  0  0  0  0
   -4.0880   -4.9020   -1.4730 O   0  0  0  0  0  0  0  0  0  0  0  0
   -5.9730   -5.2230   -0.7520 H   0  0  0  0  0  0  0  0  0  0  0  0
   -5.3090   -6.5280   -1.7520 H   0  0  0  0  0  0  0  0  0  0  0  0
   -5.9040   -5.0460   -2.5370 H   0  0  0  0  0  0  0  0  0  0  0  0
   19.5620   -3.5660    9.9060 C   0  0  0  0  0  0  0  0  0  0  0  0
   18.6390   -2.5540   10.6030 C   0  0  0  0  0  0  0  0  0  0  0  0
   19.4900   -1.5440   11.3700 C   0  0  0  0  0  0  0  0  0  0  0  0
   17.7540   -1.8850    9.5530 C   0  0  0  0  0  0  0  0  0  0  0  0
   17.8280   -3.3820   11.4640 O   0  0  0  0  0  0  0  0  0  0  0  0
   17.0300   -2.9320   12.4470 C   0  0  0  0  0  0  0  0  0  0  0  0
   16.9030   -1.7690   12.7980 O   0  0  0  0  0  0  0  0  0  0  0  0
   20.2280   -3.0850    9.1850 H   0  0  0  0  0  0  0  0  0  0  0  0
   20.1700   -4.1070   10.6420 H   0  0  0  0  0  0  0  0  0  0  0  0
   18.9750   -4.3300    9.3810 H   0  0  0  0  0  0  0  0  0  0  0  0
   20.0740   -2.0380   12.1540 H   0  0  0  0  0  0  0  0  0  0  0  0
   18.8780   -0.7830   11.8630 H   0  0  0  0  0  0  0  0  0  0  0  0
   20.1780   -1.0200   10.6980 H   0  0  0  0  0  0  0  0  0  0  0  0
   17.1740   -2.6330    9.0010 H   0  0  0  0  0  0  0  0  0  0  0  0
   17.0320   -1.2050   10.0160 H   0  0  0  0  0  0  0  0  0  0  0  0
   18.3480   -1.3280    8.8230 H   0  0  0  0  0  0  0  0  0  0  0  0
  1 28  1  0  0  0  0
  1 26  1  0  0  0  0
  2  1  1  0  0  0  0
  3  2  1  0  0  0  0
  3  4  1  0  0  0  0
  4 29  1  0  0  0  0
  5  4  2  0  0  0  0
  5 30  1  0  0  0  0
  6  5  1  0  0  0  0
  7  6  1  0  0  0  0
  7 14  1  0  0  0  0
  8  7  2  0  0  0  0
  9  8  1  0  0  0  0
  9 12  2  0  0  0  0
 10134  1  0  0  0  0
 10  9  1  0  0  0  0
 11 10  2  0  0  0  0
 12 13  1  0  0  0  0
 13 14  2  0  0  0  0
 13 33  1  0  0  0  0
 14 34  1  0  0  0  0
 15 25  1  0  0  0  0
 15  6  2  0  0  0  0
 16 15  1  0  0  0  0
 16 17  1  0  0  0  0
 17 35  1  0  0  0  0
 18 17  2  0  0  0  0
 18 19  1  0  0  0  0
 19 36  1  1  0  0  0
 19 20  1  0  0  0  0
 20 38  1  0  0  0  0
 20 37  1  0  0  0  0
 21 40  1  0  0  0  0
 21 19  1  0  0  0  0
 22 18  1  0  0  0  0
 23 24  1  0  0  0  0
 23 22  2  0  0  0  0
 24 16  2  0  0  0  0
 25  3  2  0  0  0  0
 27  1  1  0  0  0  0
 31  8  1  0  0  0  0
 32 12  1  0  0  0  0
 39 20  1  0  0  0  0
 41 22  1  0  0  0  0
 42 23  1  0  0  0  0
 43 24  1  0  0  0  0
 44 25  1  0  0  0  0
 45 46  1  0  0  0  0
 46 47  1  0  0  0  0
 47 69  1  0  0  0  0
 48 47  2  0  0  0  0
 48 49  1  0  0  0  0
 49 50  2  0  0  0  0
 50 59  1  0  0  0  0
 50 51  1  0  0  0  0
 51 58  1  0  0  0  0
 52 51  2  0  0  0  0
 52 53  1  0  0  0  0
 53 56  2  0  0  0  0
 54 53  1  0  0  0  0
 54 21  1  0  0  0  0
 55 54  2  0  0  0  0
 56 57  1  0  0  0  0
 56 76  1  0  0  0  0
 57 77  1  0  0  0  0
 58 78  1  0  0  0  0
 58 57  2  0  0  0  0
 59 60  1  0  0  0  0
 60 68  2  0  0  0  0
 60 61  1  0  0  0  0
 61 62  2  0  0  0  0
 62 66  1  0  0  0  0
 62 63  1  0  0  0  0
 63 80  1  6  0  0  0
 63 65  1  0  0  0  0
 63 64  1  0  0  0  0
 64 81  1  0  0  0  0
 64 83  1  0  0  0  0
 65 84  1  0  0  0  0
 65 98  1  0  0  0  0
 66 85  1  0  0  0  0
 67 86  1  0  0  0  0
 67 66  2  0  0  0  0
 68 67  1  0  0  0  0
 69 88  1  0  0  0  0
 69 59  2  0  0  0  0
 70 45  1  0  0  0  0
 71 45  1  0  0  0  0
 72 45  1  0  0  0  0
 73 48  1  0  0  0  0
 74 49  1  0  0  0  0
 75 52  1  0  0  0  0
 79 61  1  0  0  0  0
 82 64  1  0  0  0  0
 87 68  1  0  0  0  0
 89116  1  0  0  0  0
 90 89  1  0  0  0  0
 91 90  1  0  0  0  0
 92 91  2  0  0  0  0
 93 92  1  0  0  0  0
 94 93  2  0  0  0  0
 94103  1  0  0  0  0
 95102  1  0  0  0  0
 95 94  1  0  0  0  0
 96 95  2  0  0  0  0
 97100  2  0  0  0  0
 97 96  1  0  0  0  0
 98 97  1  0  0  0  0
 99 98  2  0  0  0  0
100101  1  0  0  0  0
101121  1  0  0  0  0
101102  2  0  0  0  0
102122  1  0  0  0  0
103113  2  0  0  0  0
104103  1  0  0  0  0
104105  1  0  0  0  0
105123  1  0  0  0  0
106105  2  0  0  0  0
106107  1  0  0  0  0
107109  1  0  0  0  0
107124  1  1  0  0  0
108107  1  0  0  0  0
108125  1  0  0  0  0
109128  1  0  0  0  0
110106  1  0  0  0  0
111112  1  0  0  0  0
111110  2  0  0  0  0
112104  2  0  0  0  0
113 91  1  0  0  0  0
113132  1  0  0  0  0
114 89  1  0  0  0  0
115 89  1  0  0  0  0
117 92  1  0  0  0  0
118 93  1  0  0  0  0
119 96  1  0  0  0  0
120100  1  0  0  0  0
126108  1  0  0  0  0
127108  1  0  0  0  0
129110  1  0  0  0  0
130111  1  0  0  0  0
131112  1  0  0  0  0
133134  1  0  0  0  0
133135  1  0  0  0  0
136133  1  0  0  0  0
137133  1  0  0  0  0
138139  1  0  0  0  0
138146  1  0  0  0  0
139140  1  0  0  0  0
139142  1  0  0  0  0
140149  1  0  0  0  0
140148  1  0  0  0  0
141152  1  0  0  0  0
141139  1  0  0  0  0
142143  1  0  0  0  0
143144  2  0  0  0  0
143109  1  0  0  0  0
145138  1  0  0  0  0
147138  1  0  0  0  0
150140  1  0  0  0  0
151141  1  0  0  0  0
153141  1  0  0  0  0
M  END
