pop_trimer.pdb
 OpenBabel10062412273D

153161  0  0  1  0  0  0  0  0999 V2000
   -2.4810   -4.9370    0.7100 C   0  0  0  0  0  0  0  0  0  0  0  0
   -2.1360   -5.6370   -0.2180 O   0  0  0  0  0  0  0  0  0  0  0  0
   -2.4330   -3.4480    0.6700 C   0  0  0  0  0  0  0  0  0  0  0  0
   -2.8300   -2.6410    1.7390 C   0  0  0  0  0  0  0  0  0  0  0  0
   -2.6810   -1.2470    1.6530 C   0  0  0  0  0  0  0  0  0  0  0  0
   -2.1270   -0.6380    0.5070 C   0  0  0  0  0  0  0  0  0  0  0  0
   -1.9470    0.8310    0.4380 C   0  0  0  0  0  0  0  0  0  0  0  0
   -0.6980    1.4500    0.1680 C   0  0  0  0  0  0  0  0  0  0  0  0
   -0.6550    2.8550    0.0500 C   0  0  0  0  0  0  0  0  0  0  0  0
   -1.7950    3.6600    0.2210 C   0  0  0  0  0  0  0  0  0  0  0  0
   -1.5750    5.0010    0.0670 O   0  0  0  0  0  0  0  0  0  0  0  0
   -2.6840    5.8750    0.2440 C   0  0  0  0  0  0  0  0  0  0  0  0
   -3.0030    3.0510    0.5230 C   0  0  0  0  0  0  0  0  0  0  0  0
   -3.0760    1.6540    0.6260 C   0  0  0  0  0  0  0  0  0  0  0  0
    0.5650    0.6850    0.0330 C   0  0  0  0  0  0  0  0  0  0  0  0
    1.3610    0.7820   -1.1180 C   0  0  0  0  0  0  0  0  0  0  0  0
    2.5360    0.0290   -1.2550 C   0  0  0  0  0  0  0  0  0  0  0  0
    2.9470   -0.8510   -0.2420 C   0  0  0  0  0  0  0  0  0  0  0  0
    2.1580   -0.9470    0.9110 C   0  0  0  0  0  0  0  0  0  0  0  0
    0.9970   -0.1820    1.0510 C   0  0  0  0  0  0  0  0  0  0  0  0
    4.2350   -1.6470   -0.3200 C   0  0  1  0  0  0  0  0  0  0  0  0
    4.2920   -2.4880   -1.5040 N   0  0  0  0  0  0  0  0  0  0  0  0
    5.4480   -0.7050   -0.3160 C   0  0  0  0  0  0  0  0  0  0  0  0
   -1.7380   -1.4730   -0.5530 C   0  0  0  0  0  0  0  0  0  0  0  0
   -1.8800   -2.8600   -0.4760 C   0  0  0  0  0  0  0  0  0  0  0  0
   -3.2420   -3.0720    2.6420 H   0  0  0  0  0  0  0  0  0  0  0  0
   -2.9660   -0.6400    2.5050 H   0  0  0  0  0  0  0  0  0  0  0  0
    0.2900    3.3530   -0.1610 H   0  0  0  0  0  0  0  0  0  0  0  0
   -2.3270    6.8980    0.0790 H   0  0  0  0  0  0  0  0  0  0  0  0
   -3.0730    5.8210    1.2660 H   0  0  0  0  0  0  0  0  0  0  0  0
   -3.4710    5.6780   -0.4910 H   0  0  0  0  0  0  0  0  0  0  0  0
   -3.9110    3.6240    0.6780 H   0  0  0  0  0  0  0  0  0  0  0  0
   -4.0430    1.2030    0.8440 H   0  0  0  0  0  0  0  0  0  0  0  0
    1.0630    1.4460   -1.9280 H   0  0  0  0  0  0  0  0  0  0  0  0
    3.1250    0.1480   -2.1590 H   0  0  0  0  0  0  0  0  0  0  0  0
    2.4450   -1.6180    1.7190 H   0  0  0  0  0  0  0  0  0  0  0  0
    0.4180   -0.2830    1.9660 H   0  0  0  0  0  0  0  0  0  0  0  0
    4.3140   -2.3040    0.5560 H   0  0  0  0  0  0  0  0  0  0  0  0
    4.0890   -2.0020   -2.3580 H   0  0  0  0  0  0  0  0  0  0  0  0
    6.3870   -1.2700   -0.3460 H   0  0  0  0  0  0  0  0  0  0  0  0
    5.4610   -0.0760    0.5780 H   0  0  0  0  0  0  0  0  0  0  0  0
    5.4480   -0.0490   -1.1960 H   0  0  0  0  0  0  0  0  0  0  0  0
   -1.2890   -1.0480   -1.4520 H   0  0  0  0  0  0  0  0  0  0  0  0
   -1.5320   -3.4770   -1.2990 H   0  0  0  0  0  0  0  0  0  0  0  0
    5.2720   -3.4690   -1.5140 C   0  0  0  0  0  0  0  0  0  0  0  0
    5.4380   -4.2390   -0.5730 O   0  0  0  0  0  0  0  0  0  0  0  0
    6.2320   -3.4600   -2.6610 C   0  0  0  0  0  0  0  0  0  0  0  0
    6.1510   -2.5340   -3.7080 C   0  0  0  0  0  0  0  0  0  0  0  0
    7.1350   -2.4930   -4.6980 C   0  0  0  0  0  0  0  0  0  0  0  0
    8.2220   -3.3770   -4.6780 C   0  0  0  0  0  0  0  0  0  0  0  0
    9.2530   -3.3180   -5.7350 C   0  0  0  0  0  0  0  0  0  0  0  0
   10.6340   -3.1500   -5.4620 C   0  0  0  0  0  0  0  0  0  0  0  0
   11.5400   -3.1800   -6.5470 C   0  0  0  0  0  0  0  0  0  0  0  0
   11.1170   -3.3390   -7.8730 C   0  0  0  0  0  0  0  0  0  0  0  0
   12.1210   -3.3550   -8.8020 O   0  0  0  0  0  0  0  0  0  0  0  0
   11.7500   -3.4970  -10.1690 C   0  0  0  0  0  0  0  0  0  0  0  0
    9.7600   -3.4600   -8.1360 C   0  0  0  0  0  0  0  0  0  0  0  0
    8.8430   -3.4510   -7.0800 C   0  0  0  0  0  0  0  0  0  0  0  0
   11.1550   -2.9270   -4.0920 C   0  0  0  0  0  0  0  0  0  0  0  0
   12.1250   -3.7750   -3.5380 C   0  0  0  0  0  0  0  0  0  0  0  0
   12.5980   -3.5830   -2.2330 C   0  0  0  0  0  0  0  0  0  0  0  0
   12.1050   -2.5390   -1.4350 C   0  0  0  0  0  0  0  0  0  0  0  0
   11.1340   -1.6910   -1.9830 C   0  0  0  0  0  0  0  0  0  0  0  0
   10.6770   -1.8760   -3.2920 C   0  0  0  0  0  0  0  0  0  0  0  0
   12.6350   -2.2560   -0.0410 C   0  0  1  0  0  0  0  0  0  0  0  0
   12.4900   -3.3950    0.8530 N   0  0  0  0  0  0  0  0  0  0  0  0
   14.1190   -1.8640   -0.1040 C   0  0  0  0  0  0  0  0  0  0  0  0
    8.2990   -4.2990   -3.6200 C   0  0  0  0  0  0  0  0  0  0  0  0
    7.3270   -4.3300   -2.6140 C   0  0  0  0  0  0  0  0  0  0  0  0
    5.3540   -1.8050   -3.7800 H   0  0  0  0  0  0  0  0  0  0  0  0
    7.0570   -1.7390   -5.4790 H   0  0  0  0  0  0  0  0  0  0  0  0
   12.6060   -3.0620   -6.3590 H   0  0  0  0  0  0  0  0  0  0  0  0
   12.6680   -3.4890  -10.7650 H   0  0  0  0  0  0  0  0  0  0  0  0
   11.1330   -2.6560  -10.5030 H   0  0  0  0  0  0  0  0  0  0  0  0
   11.2470   -4.4520  -10.3510 H   0  0  0  0  0  0  0  0  0  0  0  0
    9.3760   -3.5750   -9.1440 H   0  0  0  0  0  0  0  0  0  0  0  0
    7.7850   -3.5670   -7.3120 H   0  0  0  0  0  0  0  0  0  0  0  0
   12.5140   -4.6070   -4.1220 H   0  0  0  0  0  0  0  0  0  0  0  0
   13.3640   -4.2550   -1.8570 H   0  0  0  0  0  0  0  0  0  0  0  0
   10.7270   -0.8690   -1.3980 H   0  0  0  0  0  0  0  0  0  0  0  0
    9.9230   -1.1930   -3.6790 H   0  0  0  0  0  0  0  0  0  0  0  0
   12.0810   -1.4170    0.3970 H   0  0  0  0  0  0  0  0  0  0  0  0
   12.8420   -4.2580    0.4790 H   0  0  0  0  0  0  0  0  0  0  0  0
   14.5040   -1.6190    0.8920 H   0  0  0  0  0  0  0  0  0  0  0  0
   14.2780   -0.9970   -0.7510 H   0  0  0  0  0  0  0  0  0  0  0  0
   14.7340   -2.6900   -0.4830 H   0  0  0  0  0  0  0  0  0  0  0  0
    9.1410   -4.9870   -3.5520 H   0  0  0  0  0  0  0  0  0  0  0  0
    7.4500   -5.0190   -1.7790 H   0  0  0  0  0  0  0  0  0  0  0  0
   12.6630   -3.1380    2.2060 C   0  0  0  0  0  0  0  0  0  0  0  0
   12.0960   -2.2080    2.7720 O   0  0  0  0  0  0  0  0  0  0  0  0
   13.6980   -3.9420    2.9280 C   0  0  0  0  0  0  0  0  0  0  0  0
   14.4830   -4.9120    2.2940 C   0  0  0  0  0  0  0  0  0  0  0  0
   15.5170   -5.5520    2.9830 C   0  0  0  0  0  0  0  0  0  0  0  0
   15.8040   -5.2400    4.3200 C   0  0  0  0  0  0  0  0  0  0  0  0
   16.9060   -5.9270    5.0280 C   0  0  0  0  0  0  0  0  0  0  0  0
   17.9770   -5.2390    5.6560 C   0  0  0  0  0  0  0  0  0  0  0  0
   18.9360   -6.0010    6.3630 C   0  0  0  0  0  0  0  0  0  0  0  0
   18.8820   -7.4000    6.4320 C   0  0  0  0  0  0  0  0  0  0  0  0
   19.8860   -7.9780    7.1580 O   0  0  0  0  0  0  0  0  0  0  0  0
   19.8890   -9.3970    7.2660 C   0  0  0  0  0  0  0  0  0  0  0  0
   17.8550   -8.0680    5.7790 C   0  0  0  0  0  0  0  0  0  0  0  0
   16.8800   -7.3380    5.0920 C   0  0  0  0  0  0  0  0  0  0  0  0
   18.1350   -3.7660    5.5800 C   0  0  0  0  0  0  0  0  0  0  0  0
   18.2140   -2.9790    6.7390 C   0  0  0  0  0  0  0  0  0  0  0  0
   18.3230   -1.5810    6.6680 C   0  0  0  0  0  0  0  0  0  0  0  0
   18.3670   -0.9240    5.4310 C   0  0  0  0  0  0  0  0  0  0  0  0
   18.2870   -1.7070    4.2690 C   0  0  0  0  0  0  0  0  0  0  0  0
   18.1870   -3.1030    4.3440 C   0  0  0  0  0  0  0  0  0  0  0  0
   18.6010    0.5740    5.3060 C   0  0  1  0  0  0  0  0  0  0  0  0
   17.5820    1.3890    5.9420 N   0  0  0  0  0  0  0  0  0  0  0  0
   19.9820    0.9560    5.8480 C   0  0  0  0  0  0  0  0  0  0  0  0
   15.0180   -4.2580    4.9460 C   0  0  0  0  0  0  0  0  0  0  0  0
   13.9840   -3.6110    4.2590 C   0  0  0  0  0  0  0  0  0  0  0  0
   14.3470   -5.1810    1.2550 H   0  0  0  0  0  0  0  0  0  0  0  0
   16.1190   -6.2880    2.4530 H   0  0  0  0  0  0  0  0  0  0  0  0
   19.7600   -5.4950    6.8640 H   0  0  0  0  0  0  0  0  0  0  0  0
   20.7520   -9.6820    7.8760 H   0  0  0  0  0  0  0  0  0  0  0  0
   20.0070   -9.8710    6.2860 H   0  0  0  0  0  0  0  0  0  0  0  0
   18.9900   -9.7620    7.7750 H   0  0  0  0  0  0  0  0  0  0  0  0
   17.7720   -9.1490    5.7920 H   0  0  0  0  0  0  0  0  0  0  0  0
   16.0720   -7.8850    4.6070 H   0  0  0  0  0  0  0  0  0  0  0  0
   18.1790   -3.4530    7.7190 H   0  0  0  0  0  0  0  0  0  0  0  0
   18.3910   -1.0160    7.5950 H   0  0  0  0  0  0  0  0  0  0  0  0
   18.3130   -1.2440    3.2850 H   0  0  0  0  0  0  0  0  0  0  0  0
   18.1380   -3.6720    3.4170 H   0  0  0  0  0  0  0  0  0  0  0  0
   18.5700    0.8250    4.2380 H   0  0  0  0  0  0  0  0  0  0  0  0
   17.1990    1.1100    6.8340 H   0  0  0  0  0  0  0  0  0  0  0  0
   20.1670    2.0310    5.7630 H   0  0  0  0  0  0  0  0  0  0  0  0
   20.7750    0.4410    5.2990 H   0  0  0  0  0  0  0  0  0  0  0  0
   20.0720    0.7120    6.9110 H   0  0  0  0  0  0  0  0  0  0  0  0
   15.2230   -3.9660    5.9750 H   0  0  0  0  0  0  0  0  0  0  0  0
   13.4240   -2.8250    4.7650 H   0  0  0  0  0  0  0  0  0  0  0  0
   -2.3580   -6.6790    2.2280 C   0  0  0  0  0  0  0  0  0  0  0  0
   -2.8440   -5.3690    1.9470 O   0  0  0  0  0  0  0  0  0  0  0  0
   -2.5180   -7.3820    1.4040 H   0  0  0  0  0  0  0  0  0  0  0  0
   -2.8660   -7.0650    3.1160 H   0  0  0  0  0  0  0  0  0  0  0  0
   -1.2890   -6.5960    2.4500 H   0  0  0  0  0  0  0  0  0  0  0  0
   19.6980    4.5220    3.3860 C   0  0  0  0  0  0  0  0  0  0  0  0
   18.5010    4.5250    4.3540 C   0  0  0  0  0  0  0  0  0  0  0  0
   18.8820    5.3780    5.5690 C   0  0  0  0  0  0  0  0  0  0  0  0
   17.2700    5.0690    3.6340 C   0  0  0  0  0  0  0  0  0  0  0  0
   18.2900    3.1340    4.6930 O   0  0  0  0  0  0  0  0  0  0  0  0
   17.4590    2.7320    5.6860 C   0  0  0  0  0  0  0  0  0  0  0  0
   16.7260    3.4540    6.3440 O   0  0  0  0  0  0  0  0  0  0  0  0
   19.9180    5.5270    3.0120 H   0  0  0  0  0  0  0  0  0  0  0  0
   20.5990    4.1380    3.8810 H   0  0  0  0  0  0  0  0  0  0  0  0
   19.5150    3.8640    2.5290 H   0  0  0  0  0  0  0  0  0  0  0  0
   19.7190    4.9300    6.1170 H   0  0  0  0  0  0  0  0  0  0  0  0
   18.0560    5.4770    6.2790 H   0  0  0  0  0  0  0  0  0  0  0  0
   19.1700    6.3900    5.2640 H   0  0  0  0  0  0  0  0  0  0  0  0
   16.9780    4.4040    2.8130 H   0  0  0  0  0  0  0  0  0  0  0  0
   16.4120    5.1310    4.3090 H   0  0  0  0  0  0  0  0  0  0  0  0
   17.4560    6.0670    3.2250 H   0  0  0  0  0  0  0  0  0  0  0  0
  1134  1  0  0  0  0
  2  1  2  0  0  0  0
  3  1  1  0  0  0  0
  3  4  1  0  0  0  0
  4 26  1  0  0  0  0
  5  4  2  0  0  0  0
  5 27  1  0  0  0  0
  6  5  1  0  0  0  0
  7  6  1  0  0  0  0
  7 14  1  0  0  0  0
  8  7  2  0  0  0  0
  9  8  1  0  0  0  0
  9 10  2  0  0  0  0
 10 13  1  0  0  0  0
 11 10  1  0  0  0  0
 11 12  1  0  0  0  0
 12 30  1  0  0  0  0
 13 14  2  0  0  0  0
 13 32  1  0  0  0  0
 14 33  1  0  0  0  0
 15  8  1  0  0  0  0
 15 20  1  0  0  0  0
 16 15  2  0  0  0  0
 17 16  1  0  0  0  0
 17 18  2  0  0  0  0
 18 19  1  0  0  0  0
 19 20  2  0  0  0  0
 19 36  1  0  0  0  0
 20 37  1  0  0  0  0
 21 23  1  0  0  0  0
 21 18  1  0  0  0  0
 21 38  1  1  0  0  0
 22 21  1  0  0  0  0
 23 41  1  0  0  0  0
 24 25  1  0  0  0  0
 24  6  2  0  0  0  0
 25  3  2  0  0  0  0
 28  9  1  0  0  0  0
 29 12  1  0  0  0  0
 31 12  1  0  0  0  0
 34 16  1  0  0  0  0
 35 17  1  0  0  0  0
 39 22  1  0  0  0  0
 40 23  1  0  0  0  0
 42 23  1  0  0  0  0
 43 24  1  0  0  0  0
 44 25  1  0  0  0  0
 45 22  1  0  0  0  0
 45 46  2  0  0  0  0
 47 69  1  0  0  0  0
 47 45  1  0  0  0  0
 48 47  2  0  0  0  0
 49 50  2  0  0  0  0
 49 48  1  0  0  0  0
 50 68  1  0  0  0  0
 51 52  1  0  0  0  0
 51 50  1  0  0  0  0
 52 59  1  0  0  0  0
 53 72  1  0  0  0  0
 53 52  2  0  0  0  0
 54 53  1  0  0  0  0
 55 54  1  0  0  0  0
 56 55  1  0  0  0  0
 57 54  2  0  0  0  0
 57 58  1  0  0  0  0
 58 51  2  0  0  0  0
 59 60  2  0  0  0  0
 59 64  1  0  0  0  0
 60 61  1  0  0  0  0
 61 79  1  0  0  0  0
 61 62  2  0  0  0  0
 62 65  1  0  0  0  0
 63 62  1  0  0  0  0
 63 80  1  0  0  0  0
 64 63  2  0  0  0  0
 65 82  1  1  0  0  0
 65 66  1  0  0  0  0
 66 89  1  0  0  0  0
 67 65  1  0  0  0  0
 67 84  1  0  0  0  0
 68 87  1  0  0  0  0
 68 69  2  0  0  0  0
 69 88  1  0  0  0  0
 70 48  1  0  0  0  0
 71 49  1  0  0  0  0
 73 56  1  0  0  0  0
 74 56  1  0  0  0  0
 75 56  1  0  0  0  0
 76 57  1  0  0  0  0
 77 58  1  0  0  0  0
 78 60  1  0  0  0  0
 81 64  1  0  0  0  0
 83 66  1  0  0  0  0
 85 67  1  0  0  0  0
 86 67  1  0  0  0  0
 89 90  2  0  0  0  0
 89 91  1  0  0  0  0
 91113  1  0  0  0  0
 92 91  2  0  0  0  0
 92 93  1  0  0  0  0
 93 94  2  0  0  0  0
 94112  1  0  0  0  0
 94 95  1  0  0  0  0
 95102  2  0  0  0  0
 95 96  1  0  0  0  0
 96 97  2  0  0  0  0
 97 98  1  0  0  0  0
 97116  1  0  0  0  0
 98 99  1  0  0  0  0
 99100  1  0  0  0  0
100119  1  0  0  0  0
100117  1  0  0  0  0
101120  1  0  0  0  0
101 98  2  0  0  0  0
102101  1  0  0  0  0
103 96  1  0  0  0  0
103104  1  0  0  0  0
104122  1  0  0  0  0
105104  2  0  0  0  0
105123  1  0  0  0  0
106105  1  0  0  0  0
107108  1  0  0  0  0
107106  2  0  0  0  0
108103  2  0  0  0  0
109126  1  6  0  0  0
109106  1  0  0  0  0
109111  1  0  0  0  0
109110  1  0  0  0  0
110127  1  0  0  0  0
111130  1  0  0  0  0
112131  1  0  0  0  0
113132  1  0  0  0  0
113112  2  0  0  0  0
114 92  1  0  0  0  0
115 93  1  0  0  0  0
118100  1  0  0  0  0
121102  1  0  0  0  0
124107  1  0  0  0  0
125108  1  0  0  0  0
128111  1  0  0  0  0
129111  1  0  0  0  0
133137  1  0  0  0  0
133136  1  0  0  0  0
134133  1  0  0  0  0
135133  1  0  0  0  0
138146  1  0  0  0  0
138139  1  0  0  0  0
139142  1  0  0  0  0
139140  1  0  0  0  0
140148  1  0  0  0  0
140149  1  0  0  0  0
141152  1  0  0  0  0
141139  1  0  0  0  0
142143  1  0  0  0  0
143110  1  0  0  0  0
143144  2  0  0  0  0
145138  1  0  0  0  0
147138  1  0  0  0  0
150140  1  0  0  0  0
151141  1  0  0  0  0
153141  1  0  0  0  0
M  END
