pop_tetramer.pdb
 OpenBabel09052522393D

197208  0  0  1  0  0  0  0  0999 V2000
   -2.1990   -4.5790   -1.7890 C   0  0  0  0  0  0  0  0  0  0  0  0
   -1.5080   -4.9850   -2.7090 O   0  0  0  0  0  0  0  0  0  0  0  0
   -2.2240   -3.1720   -1.3050 C   0  0  0  0  0  0  0  0  0  0  0  0
   -2.9570   -2.7960   -0.1720 C   0  0  0  0  0  0  0  0  0  0  0  0
   -2.8780   -1.4910    0.3180 C   0  0  0  0  0  0  0  0  0  0  0  0
   -2.0780   -0.5270   -0.3160 C   0  0  0  0  0  0  0  0  0  0  0  0
   -1.9820    0.8460    0.2320 C   0  0  0  0  0  0  0  0  0  0  0  0
   -0.7500    1.4470    0.5980 C   0  0  0  0  0  0  0  0  0  0  0  0
   -0.7510    2.7770    1.0670 C   0  0  0  0  0  0  0  0  0  0  0  0
   -1.9300    3.5100    1.2040 C   0  0  0  0  0  0  0  0  0  0  0  0
   -1.7610    4.7860    1.6640 O   0  0  0  0  0  0  0  0  0  0  0  0
   -2.9300    5.5800    1.8140 C   0  0  0  0  0  0  0  0  0  0  0  0
   -3.1400    2.9080    0.8780 C   0  0  0  0  0  0  0  0  0  0  0  0
   -3.1620    1.5950    0.3960 C   0  0  0  0  0  0  0  0  0  0  0  0
    0.5300    0.7230    0.5240 C   0  0  0  0  0  0  0  0  0  0  0  0
    1.5860    1.2070   -0.2620 C   0  0  0  0  0  0  0  0  0  0  0  0
    2.7730    0.4870   -0.3760 C   0  0  0  0  0  0  0  0  0  0  0  0
    2.9310   -0.7290    0.3010 C   0  0  0  0  0  0  0  0  0  0  0  0
    1.8860   -1.2110    1.0980 C   0  0  0  0  0  0  0  0  0  0  0  0
    0.7080   -0.4840    1.2190 C   0  0  0  0  0  0  0  0  0  0  0  0
    4.2320   -1.4900    0.2500 C   0  0  2  0  0  0  0  0  0  0  0  0
    5.3930   -0.6870    0.6180 N   0  0  0  0  0  0  0  0  0  0  0  0
    4.4130   -2.1380   -1.1230 C   0  0  0  0  0  0  0  0  0  0  0  0
   -1.3590   -0.9180   -1.4610 C   0  0  0  0  0  0  0  0  0  0  0  0
   -1.4200   -2.2280   -1.9470 C   0  0  0  0  0  0  0  0  0  0  0  0
   -3.5760   -3.5140    0.3600 H   0  0  0  0  0  0  0  0  0  0  0  0
   -3.4280   -1.2370    1.2220 H   0  0  0  0  0  0  0  0  0  0  0  0
    0.1910    3.2490    1.3480 H   0  0  0  0  0  0  0  0  0  0  0  0
   -2.6200    6.5670    2.1710 H   0  0  0  0  0  0  0  0  0  0  0  0
   -3.6030    5.1500    2.5640 H   0  0  0  0  0  0  0  0  0  0  0  0
   -3.4420    5.7180    0.8560 H   0  0  0  0  0  0  0  0  0  0  0  0
   -4.0850    3.4290    0.9790 H   0  0  0  0  0  0  0  0  0  0  0  0
   -4.1220    1.1540    0.1330 H   0  0  0  0  0  0  0  0  0  0  0  0
    1.4920    2.1530   -0.7890 H   0  0  0  0  0  0  0  0  0  0  0  0
    3.5950    0.9000   -0.9550 H   0  0  0  0  0  0  0  0  0  0  0  0
    1.9940   -2.1390    1.6540 H   0  0  0  0  0  0  0  0  0  0  0  0
   -0.0820   -0.8710    1.8580 H   0  0  0  0  0  0  0  0  0  0  0  0
    4.2030   -2.2980    0.9940 H   0  0  0  0  0  0  0  0  0  0  0  0
    6.2580   -1.1160    0.3400 H   0  0  0  0  0  0  0  0  0  0  0  0
    3.5730   -2.8050   -1.3490 H   0  0  0  0  0  0  0  0  0  0  0  0
    4.4730   -1.3910   -1.9220 H   0  0  0  0  0  0  0  0  0  0  0  0
    5.3320   -2.7330   -1.1560 H   0  0  0  0  0  0  0  0  0  0  0  0
   -0.7130   -0.2040   -1.9700 H   0  0  0  0  0  0  0  0  0  0  0  0
   -0.8190   -2.5090   -2.8100 H   0  0  0  0  0  0  0  0  0  0  0  0
    5.3840   -0.0650    1.8610 C   0  0  0  0  0  0  0  0  0  0  0  0
    4.4830    0.6730    2.2440 O   0  0  0  0  0  0  0  0  0  0  0  0
    6.4910   -0.3840    2.8030 C   0  0  0  0  0  0  0  0  0  0  0  0
    7.5580   -1.2260    2.4820 C   0  0  0  0  0  0  0  0  0  0  0  0
    8.5110   -1.5510    3.4490 C   0  0  0  0  0  0  0  0  0  0  0  0
    8.4160   -1.0520    4.7560 C   0  0  0  0  0  0  0  0  0  0  0  0
    9.4650   -1.3570    5.7470 C   0  0  0  0  0  0  0  0  0  0  0  0
   10.2020   -0.3430    6.4100 C   0  0  0  0  0  0  0  0  0  0  0  0
   11.1560   -0.7200    7.3740 C   0  0  0  0  0  0  0  0  0  0  0  0
   11.4110   -2.0590    7.6750 C   0  0  0  0  0  0  0  0  0  0  0  0
   12.3560   -2.2550    8.6410 O   0  0  0  0  0  0  0  0  0  0  0  0
   12.6600   -3.6010    8.9810 C   0  0  0  0  0  0  0  0  0  0  0  0
   10.7130   -3.0510    6.9960 C   0  0  0  0  0  0  0  0  0  0  0  0
    9.7490   -2.7020    6.0460 C   0  0  0  0  0  0  0  0  0  0  0  0
   10.0060    1.0890    6.1200 C   0  0  0  0  0  0  0  0  0  0  0  0
    9.6170    1.9760    7.1340 C   0  0  0  0  0  0  0  0  0  0  0  0
    9.3690    3.3160    6.8500 C   0  0  0  0  0  0  0  0  0  0  0  0
    9.5100    3.8010    5.5440 C   0  0  0  0  0  0  0  0  0  0  0  0
    9.9030    2.9250    4.5260 C   0  0  0  0  0  0  0  0  0  0  0  0
   10.1640    1.5890    4.8160 C   0  0  0  0  0  0  0  0  0  0  0  0
    9.3290    5.2660    5.2320 C   0  0  2  0  0  0  0  0  0  0  0  0
   10.1540    6.1430    6.0580 N   0  0  0  0  0  0  0  0  0  0  0  0
    7.8510    5.6500    5.3110 C   0  0  0  0  0  0  0  0  0  0  0  0
    7.3270   -0.2260    5.0750 C   0  0  0  0  0  0  0  0  0  0  0  0
    6.3840    0.1170    4.1080 C   0  0  0  0  0  0  0  0  0  0  0  0
    7.6880   -1.6580    1.4980 H   0  0  0  0  0  0  0  0  0  0  0  0
    9.3470   -2.1900    3.1690 H   0  0  0  0  0  0  0  0  0  0  0  0
   11.7240    0.0500    7.8950 H   0  0  0  0  0  0  0  0  0  0  0  0
   13.4260   -3.5810    9.7620 H   0  0  0  0  0  0  0  0  0  0  0  0
   13.0720   -4.1400    8.1220 H   0  0  0  0  0  0  0  0  0  0  0  0
   11.7830   -4.1150    9.3880 H   0  0  0  0  0  0  0  0  0  0  0  0
   10.8840   -4.1060    7.1820 H   0  0  0  0  0  0  0  0  0  0  0  0
    9.2020   -3.4960    5.5400 H   0  0  0  0  0  0  0  0  0  0  0  0
    9.5090    1.6270    8.1580 H   0  0  0  0  0  0  0  0  0  0  0  0
    9.1140    3.9960    7.6600 H   0  0  0  0  0  0  0  0  0  0  0  0
   10.0390    3.2810    3.5080 H   0  0  0  0  0  0  0  0  0  0  0  0
   10.4830    0.9330    4.0100 H   0  0  0  0  0  0  0  0  0  0  0  0
    9.6630    5.4560    4.2020 H   0  0  0  0  0  0  0  0  0  0  0  0
    9.8480    7.0980    6.0270 H   0  0  0  0  0  0  0  0  0  0  0  0
    7.2550    5.0390    4.6240 H   0  0  0  0  0  0  0  0  0  0  0  0
    7.4470    5.5130    6.3200 H   0  0  0  0  0  0  0  0  0  0  0  0
    7.7060    6.7010    5.0380 H   0  0  0  0  0  0  0  0  0  0  0  0
    7.2190    0.1830    6.0780 H   0  0  0  0  0  0  0  0  0  0  0  0
    5.5560    0.7680    4.3860 H   0  0  0  0  0  0  0  0  0  0  0  0
   11.5280    5.9310    6.0580 C   0  0  0  0  0  0  0  0  0  0  0  0
   12.0520    4.8480    6.2860 O   0  0  0  0  0  0  0  0  0  0  0  0
   12.4040    7.0720    5.6700 C   0  0  0  0  0  0  0  0  0  0  0  0
   11.9180    8.3410    5.3380 C   0  0  0  0  0  0  0  0  0  0  0  0
   12.7900    9.3300    4.8780 C   0  0  0  0  0  0  0  0  0  0  0  0
   14.1620    9.0760    4.7290 C   0  0  0  0  0  0  0  0  0  0  0  0
   15.0760   10.1510    4.2970 C   0  0  0  0  0  0  0  0  0  0  0  0
   16.1900   10.5610    5.0730 C   0  0  0  0  0  0  0  0  0  0  0  0
   17.0340   11.5700    4.5700 C   0  0  0  0  0  0  0  0  0  0  0  0
   16.7900   12.1920    3.3440 C   0  0  0  0  0  0  0  0  0  0  0  0
   17.7080   13.1430    2.9970 O   0  0  0  0  0  0  0  0  0  0  0  0
   17.5080   13.8110    1.7600 C   0  0  0  0  0  0  0  0  0  0  0  0
   15.6780   11.8130    2.6020 C   0  0  0  0  0  0  0  0  0  0  0  0
   14.8340   10.8030    3.0720 C   0  0  0  0  0  0  0  0  0  0  0  0
   16.4870    9.9770    6.3940 C   0  0  0  0  0  0  0  0  0  0  0  0
   17.7160    9.3490    6.6400 C   0  0  0  0  0  0  0  0  0  0  0  0
   17.9750    8.7490    7.8700 C   0  0  0  0  0  0  0  0  0  0  0  0
   17.0090    8.7670    8.8840 C   0  0  0  0  0  0  0  0  0  0  0  0
   15.7810    9.3960    8.6480 C   0  0  0  0  0  0  0  0  0  0  0  0
   15.5330   10.0070    7.4240 C   0  0  0  0  0  0  0  0  0  0  0  0
   17.2950    8.1900   10.2490 C   0  0  2  0  0  0  0  0  0  0  0  0
   18.5110    8.7140   10.8640 N   0  0  0  0  0  0  0  0  0  0  0  0
   17.3170    6.6620   10.1880 C   0  0  0  0  0  0  0  0  0  0  0  0
   14.6360    7.7940    5.0460 C   0  0  0  0  0  0  0  0  0  0  0  0
   13.7740    6.8100    5.5250 C   0  0  0  0  0  0  0  0  0  0  0  0
   10.8700    8.6030    5.4120 H   0  0  0  0  0  0  0  0  0  0  0  0
   12.3910   10.3140    4.6470 H   0  0  0  0  0  0  0  0  0  0  0  0
   17.8950   11.8900    5.1560 H   0  0  0  0  0  0  0  0  0  0  0  0
   18.3310   14.5200    1.6290 H   0  0  0  0  0  0  0  0  0  0  0  0
   16.5740   14.3820    1.7690 H   0  0  0  0  0  0  0  0  0  0  0  0
   17.5350   13.1100    0.9200 H   0  0  0  0  0  0  0  0  0  0  0  0
   15.4370   12.2760    1.6510 H   0  0  0  0  0  0  0  0  0  0  0  0
   13.9790   10.5120    2.4650 H   0  0  0  0  0  0  0  0  0  0  0  0
   18.4860    9.3260    5.8720 H   0  0  0  0  0  0  0  0  0  0  0  0
   18.9510    8.3070    8.0540 H   0  0  0  0  0  0  0  0  0  0  0  0
   15.0210    9.4380    9.4240 H   0  0  0  0  0  0  0  0  0  0  0  0
   14.5760   10.5010    7.2720 H   0  0  0  0  0  0  0  0  0  0  0  0
   16.4870    8.4800   10.9350 H   0  0  0  0  0  0  0  0  0  0  0  0
   18.8210    8.1510   11.6360 H   0  0  0  0  0  0  0  0  0  0  0  0
   16.3680    6.2750    9.7990 H   0  0  0  0  0  0  0  0  0  0  0  0
   18.1210    6.2910    9.5440 H   0  0  0  0  0  0  0  0  0  0  0  0
   17.4700    6.2350   11.1860 H   0  0  0  0  0  0  0  0  0  0  0  0
   15.6940    7.5560    4.9470 H   0  0  0  0  0  0  0  0  0  0  0  0
   14.1750    5.8280    5.7690 H   0  0  0  0  0  0  0  0  0  0  0  0
   18.6180   10.0910   11.0210 C   0  0  0  0  0  0  0  0  0  0  0  0
   18.4930   10.8910   10.1010 O   0  0  0  0  0  0  0  0  0  0  0  0
   18.8180   10.6200   12.3980 C   0  0  0  0  0  0  0  0  0  0  0  0
   18.9760    9.8040   13.5230 C   0  0  0  0  0  0  0  0  0  0  0  0
   19.0760   10.3730   14.7940 C   0  0  0  0  0  0  0  0  0  0  0  0
   19.0120   11.7620   14.9740 C   0  0  0  0  0  0  0  0  0  0  0  0
   19.1790   12.3480   16.3170 C   0  0  0  0  0  0  0  0  0  0  0  0
   20.1940   13.2940   16.6180 C   0  0  0  0  0  0  0  0  0  0  0  0
   20.2490   13.8310   17.9190 C   0  0  0  0  0  0  0  0  0  0  0  0
   19.3530   13.4430   18.9180 C   0  0  0  0  0  0  0  0  0  0  0  0
   19.5380   14.0630   20.1210 O   0  0  0  0  0  0  0  0  0  0  0  0
   18.6520   13.7050   21.1750 C   0  0  0  0  0  0  0  0  0  0  0  0
   18.3820   12.4900   18.6270 C   0  0  0  0  0  0  0  0  0  0  0  0
   18.2940   11.9540   17.3410 C   0  0  0  0  0  0  0  0  0  0  0  0
   21.2020   13.7190   15.6230 C   0  0  0  0  0  0  0  0  0  0  0  0
   21.3510   15.0700   15.2780 C   0  0  0  0  0  0  0  0  0  0  0  0
   22.2730   15.4610   14.3040 C   0  0  0  0  0  0  0  0  0  0  0  0
   23.0690   14.5090   13.6480 C   0  0  0  0  0  0  0  0  0  0  0  0
   22.9320   13.1620   13.9930 C   0  0  0  0  0  0  0  0  0  0  0  0
   22.0210   12.7770   14.9760 C   0  0  0  0  0  0  0  0  0  0  0  0
   24.1300   14.9230   12.6350 C   0  0  2  0  0  0  0  0  0  0  0  0
   25.0110   15.9040   13.2460 N   0  0  0  0  0  0  0  0  0  0  0  0
   23.4460   15.4060   11.3570 C   0  0  0  0  0  0  0  0  0  0  0  0
   18.8260   12.5710   13.8430 C   0  0  0  0  0  0  0  0  0  0  0  0
   18.7440   12.0080   12.5690 C   0  0  0  0  0  0  0  0  0  0  0  0
   19.0210    8.7240   13.4610 H   0  0  0  0  0  0  0  0  0  0  0  0
   19.2240    9.7180   15.6520 H   0  0  0  0  0  0  0  0  0  0  0  0
   21.0180   14.5620   18.1670 H   0  0  0  0  0  0  0  0  0  0  0  0
   18.9230   14.3000   22.0500 H   0  0  0  0  0  0  0  0  0  0  0  0
   18.7650   12.6490   21.4400 H   0  0  0  0  0  0  0  0  0  0  0  0
   17.6160   13.9400   20.9190 H   0  0  0  0  0  0  0  0  0  0  0  0
   17.6740   12.1430   19.3720 H   0  0  0  0  0  0  0  0  0  0  0  0
   17.5180   11.2220   17.1320 H   0  0  0  0  0  0  0  0  0  0  0  0
   20.7420   15.8310   15.7620 H   0  0  0  0  0  0  0  0  0  0  0  0
   22.3850   16.5190   14.0760 H   0  0  0  0  0  0  0  0  0  0  0  0
   23.5530   12.4060   13.5210 H   0  0  0  0  0  0  0  0  0  0  0  0
   21.9460   11.7220   15.2300 H   0  0  0  0  0  0  0  0  0  0  0  0
   24.7550   14.0600   12.3750 H   0  0  0  0  0  0  0  0  0  0  0  0
   25.4000   16.6610   12.7020 H   0  0  0  0  0  0  0  0  0  0  0  0
   22.7900   14.6200   10.9590 H   0  0  0  0  0  0  0  0  0  0  0  0
   22.8280   16.2950   11.5230 H   0  0  0  0  0  0  0  0  0  0  0  0
   24.1800   15.6480   10.5830 H   0  0  0  0  0  0  0  0  0  0  0  0
   18.7680   13.6530   13.9400 H   0  0  0  0  0  0  0  0  0  0  0  0
   18.6090   12.6640   11.7100 H   0  0  0  0  0  0  0  0  0  0  0  0
   -2.1930   -6.3460   -0.3030 C   0  0  0  0  0  0  0  0  0  0  0  0
   -2.9590   -5.3510   -0.9760 O   0  0  0  0  0  0  0  0  0  0  0  0
   -1.4780   -6.8450   -0.9620 H   0  0  0  0  0  0  0  0  0  0  0  0
   -2.8800   -7.0860    0.1130 H   0  0  0  0  0  0  0  0  0  0  0  0
   -1.6660   -5.8640    0.5280 H   0  0  0  0  0  0  0  0  0  0  0  0
   27.0540   17.7160   16.9780 C   0  0  0  0  0  0  0  0  0  0  0  0
   26.8490   16.3410   16.3190 C   0  0  0  0  0  0  0  0  0  0  0  0
   28.2230   15.7100   16.0700 C   0  0  0  0  0  0  0  0  0  0  0  0
   26.0040   15.4950   17.2910 C   0  0  0  0  0  0  0  0  0  0  0  0
   26.1870   16.5850   15.0440 O   0  0  0  0  0  0  0  0  0  0  0  0
   25.7590   15.5230   14.3240 C   0  0  0  0  0  0  0  0  0  0  0  0
   25.9680   14.3420   14.6170 O   0  0  0  0  0  0  0  0  0  0  0  0
   27.5970   17.6270   17.9270 H   0  0  0  0  0  0  0  0  0  0  0  0
   27.6130   18.3920   16.3220 H   0  0  0  0  0  0  0  0  0  0  0  0
   26.0920   18.2000   17.1850 H   0  0  0  0  0  0  0  0  0  0  0  0
   28.7800   16.2880   15.3250 H   0  0  0  0  0  0  0  0  0  0  0  0
   28.1370   14.6930   15.6770 H   0  0  0  0  0  0  0  0  0  0  0  0
   28.8130   15.6570   16.9900 H   0  0  0  0  0  0  0  0  0  0  0  0
   25.0100   15.9330   17.4350 H   0  0  0  0  0  0  0  0  0  0  0  0
   25.8470   14.4720   16.9380 H   0  0  0  0  0  0  0  0  0  0  0  0
   26.4920   15.4160   18.2690 H   0  0  0  0  0  0  0  0  0  0  0  0
  1  3  1  0  0  0  0
  1178  1  0  0  0  0
  2  1  2  0  0  0  0
  3  4  1  0  0  0  0
  4  5  2  0  0  0  0
  4 26  1  0  0  0  0
  5 27  1  0  0  0  0
  6  7  1  0  0  0  0
  6  5  1  0  0  0  0
  7 14  2  0  0  0  0
  7  8  1  0  0  0  0
  8  9  2  0  0  0  0
  9 10  1  0  0  0  0
  9 28  1  0  0  0  0
 10 11  1  0  0  0  0
 11 12  1  0  0  0  0
 12 29  1  0  0  0  0
 12 30  1  0  0  0  0
 13 32  1  0  0  0  0
 13 10  2  0  0  0  0
 14 13  1  0  0  0  0
 15  8  1  0  0  0  0
 15 20  1  0  0  0  0
 16 15  2  0  0  0  0
 17 16  1  0  0  0  0
 17 18  2  0  0  0  0
 18 19  1  0  0  0  0
 19 20  2  0  0  0  0
 19 36  1  0  0  0  0
 20 37  1  0  0  0  0
 21 18  1  0  0  0  0
 21 22  1  0  0  0  0
 21 38  1  1  0  0  0
 22 45  1  0  0  0  0
 23 21  1  0  0  0  0
 24  6  2  0  0  0  0
 25 24  1  0  0  0  0
 25  3  2  0  0  0  0
 31 12  1  0  0  0  0
 33 14  1  0  0  0  0
 34 16  1  0  0  0  0
 35 17  1  0  0  0  0
 39 22  1  0  0  0  0
 40 23  1  0  0  0  0
 41 23  1  0  0  0  0
 42 23  1  0  0  0  0
 43 24  1  0  0  0  0
 44 25  1  0  0  0  0
 45 46  2  0  0  0  0
 45 47  1  0  0  0  0
 47 69  1  0  0  0  0
 48 47  2  0  0  0  0
 48 49  1  0  0  0  0
 49 50  2  0  0  0  0
 50 68  1  0  0  0  0
 50 51  1  0  0  0  0
 51 58  2  0  0  0  0
 51 52  1  0  0  0  0
 52 53  2  0  0  0  0
 53 54  1  0  0  0  0
 53 72  1  0  0  0  0
 54 55  1  0  0  0  0
 55 56  1  0  0  0  0
 56 75  1  0  0  0  0
 56 73  1  0  0  0  0
 57 76  1  0  0  0  0
 57 54  2  0  0  0  0
 58 57  1  0  0  0  0
 59 52  1  0  0  0  0
 59 60  1  0  0  0  0
 60 78  1  0  0  0  0
 61 60  2  0  0  0  0
 61 79  1  0  0  0  0
 62 61  1  0  0  0  0
 63 64  1  0  0  0  0
 63 62  2  0  0  0  0
 64 59  2  0  0  0  0
 65 82  1  6  0  0  0
 65 67  1  0  0  0  0
 65 62  1  0  0  0  0
 65 66  1  0  0  0  0
 66 89  1  0  0  0  0
 67 85  1  0  0  0  0
 68 87  1  0  0  0  0
 69 88  1  0  0  0  0
 69 68  2  0  0  0  0
 70 48  1  0  0  0  0
 71 49  1  0  0  0  0
 74 56  1  0  0  0  0
 77 58  1  0  0  0  0
 80 63  1  0  0  0  0
 81 64  1  0  0  0  0
 83 66  1  0  0  0  0
 84 67  1  0  0  0  0
 86 67  1  0  0  0  0
 89 90  2  0  0  0  0
 91 89  1  0  0  0  0
 92114  1  0  0  0  0
 92 91  2  0  0  0  0
 93 92  1  0  0  0  0
 94 93  2  0  0  0  0
 94112  1  0  0  0  0
 95 94  1  0  0  0  0
 95 96  1  0  0  0  0
 96103  1  0  0  0  0
 97 96  2  0  0  0  0
 97116  1  0  0  0  0
 98 97  1  0  0  0  0
 99 98  1  0  0  0  0
100118  1  0  0  0  0
100 99  1  0  0  0  0
101102  1  0  0  0  0
101 98  2  0  0  0  0
102 95  2  0  0  0  0
103104  2  0  0  0  0
103108  1  0  0  0  0
104105  1  0  0  0  0
105123  1  0  0  0  0
105106  2  0  0  0  0
106109  1  0  0  0  0
107106  1  0  0  0  0
107124  1  0  0  0  0
108107  2  0  0  0  0
109110  1  0  0  0  0
109126  1  1  0  0  0
110133  1  0  0  0  0
110127  1  0  0  0  0
111109  1  0  0  0  0
111130  1  0  0  0  0
112113  2  0  0  0  0
113 91  1  0  0  0  0
113132  1  0  0  0  0
115 93  1  0  0  0  0
117100  1  0  0  0  0
119100  1  0  0  0  0
120101  1  0  0  0  0
121102  1  0  0  0  0
122104  1  0  0  0  0
125108  1  0  0  0  0
128111  1  0  0  0  0
129111  1  0  0  0  0
131112  1  0  0  0  0
133135  1  0  0  0  0
134133  2  0  0  0  0
135157  2  0  0  0  0
135136  1  0  0  0  0
136137  2  0  0  0  0
137138  1  0  0  0  0
137159  1  0  0  0  0
138139  1  0  0  0  0
139140  2  0  0  0  0
139146  1  0  0  0  0
140141  1  0  0  0  0
141160  1  0  0  0  0
141142  2  0  0  0  0
142143  1  0  0  0  0
143144  1  0  0  0  0
144162  1  0  0  0  0
144161  1  0  0  0  0
145142  1  0  0  0  0
145164  1  0  0  0  0
146145  2  0  0  0  0
147140  1  0  0  0  0
148147  1  0  0  0  0
148166  1  0  0  0  0
149148  2  0  0  0  0
150151  2  0  0  0  0
150149  1  0  0  0  0
151152  1  0  0  0  0
152169  1  0  0  0  0
152147  2  0  0  0  0
153170  1  6  0  0  0
153154  1  0  0  0  0
153150  1  0  0  0  0
154187  1  0  0  0  0
155173  1  0  0  0  0
155153  1  0  0  0  0
156175  1  0  0  0  0
156138  2  0  0  0  0
157156  1  0  0  0  0
158136  1  0  0  0  0
163144  1  0  0  0  0
165146  1  0  0  0  0
167149  1  0  0  0  0
168151  1  0  0  0  0
171154  1  0  0  0  0
172155  1  0  0  0  0
174155  1  0  0  0  0
176157  1  0  0  0  0
177180  1  0  0  0  0
177181  1  0  0  0  0
178177  1  0  0  0  0
179177  1  0  0  0  0
182191  1  0  0  0  0
182189  1  0  0  0  0
183182  1  0  0  0  0
183185  1  0  0  0  0
184183  1  0  0  0  0
184194  1  0  0  0  0
185195  1  0  0  0  0
185197  1  0  0  0  0
186183  1  0  0  0  0
187188  2  0  0  0  0
187186  1  0  0  0  0
190182  1  0  0  0  0
192184  1  0  0  0  0
193184  1  0  0  0  0
196185  1  0  0  0  0
M  END
