pop_tetramer.pdb
 OpenBabel06252516103D

197208  0  0  1  0  0  0  0  0999 V2000
   -2.2220   -4.6670   -1.8370 C   0  0  0  0  0  0  0  0  0  0  0  0
   -1.4920   -5.0660   -2.7280 O   0  0  0  0  0  0  0  0  0  0  0  0
   -2.2710   -3.2510   -1.3830 C   0  0  0  0  0  0  0  0  0  0  0  0
   -3.0140   -2.8940   -0.2410 C   0  0  0  0  0  0  0  0  0  0  0  0
   -2.9300   -1.5980    0.2580 C   0  0  0  0  0  0  0  0  0  0  0  0
   -2.1450   -0.6400   -0.3860 C   0  0  0  0  0  0  0  0  0  0  0  0
   -2.0670    0.7160    0.1790 C   0  0  0  0  0  0  0  0  0  0  0  0
   -0.8510    1.3670    0.4780 C   0  0  0  0  0  0  0  0  0  0  0  0
   -0.9160    2.6770    0.9650 C   0  0  0  0  0  0  0  0  0  0  0  0
   -2.1210    3.2290    1.3840 C   0  0  0  0  0  0  0  0  0  0  0  0
   -2.0220    4.4040    2.0680 O   0  0  0  0  0  0  0  0  0  0  0  0
   -3.2060    4.8220    2.7390 C   0  0  0  0  0  0  0  0  0  0  0  0
   -3.3120    2.5840    1.1030 C   0  0  0  0  0  0  0  0  0  0  0  0
   -3.2860    1.3640    0.4580 C   0  0  0  0  0  0  0  0  0  0  0  0
    0.4550    0.6790    0.4230 C   0  0  0  0  0  0  0  0  0  0  0  0
    1.4690    1.0950   -0.4410 C   0  0  0  0  0  0  0  0  0  0  0  0
    2.6620    0.3700   -0.5350 C   0  0  0  0  0  0  0  0  0  0  0  0
    2.9160   -0.7330    0.2960 C   0  0  0  0  0  0  0  0  0  0  0  0
    1.9110   -1.1380    1.1790 C   0  0  0  0  0  0  0  0  0  0  0  0
    0.6980   -0.4450    1.2360 C   0  0  0  0  0  0  0  0  0  0  0  0
    4.2360   -1.4840    0.2490 C   0  0  2  0  0  0  0  0  0  0  0  0
    5.4080   -0.6460    0.5540 N   0  0  0  0  0  0  0  0  0  0  0  0
    4.4210   -2.1410   -1.1220 C   0  0  0  0  0  0  0  0  0  0  0  0
   -1.4270   -0.9950   -1.5390 C   0  0  0  0  0  0  0  0  0  0  0  0
   -1.4860   -2.3040   -2.0270 C   0  0  0  0  0  0  0  0  0  0  0  0
   -3.6230   -3.6060    0.2860 H   0  0  0  0  0  0  0  0  0  0  0  0
   -3.4810   -1.3570    1.1600 H   0  0  0  0  0  0  0  0  0  0  0  0
   -0.0100    3.2540    1.0910 H   0  0  0  0  0  0  0  0  0  0  0  0
   -2.9380    5.6390    3.3970 H   0  0  0  0  0  0  0  0  0  0  0  0
   -3.6320    4.0180    3.3430 H   0  0  0  0  0  0  0  0  0  0  0  0
   -3.9560    5.2070    2.0440 H   0  0  0  0  0  0  0  0  0  0  0  0
   -4.2760    3.0120    1.3540 H   0  0  0  0  0  0  0  0  0  0  0  0
   -4.2330    0.8880    0.2130 H   0  0  0  0  0  0  0  0  0  0  0  0
    1.3370    1.9780   -1.0610 H   0  0  0  0  0  0  0  0  0  0  0  0
    3.4150    0.6960   -1.2480 H   0  0  0  0  0  0  0  0  0  0  0  0
    2.0530   -2.0030    1.8250 H   0  0  0  0  0  0  0  0  0  0  0  0
   -0.0710   -0.7970    1.9200 H   0  0  0  0  0  0  0  0  0  0  0  0
    4.2230   -2.2770    1.0090 H   0  0  0  0  0  0  0  0  0  0  0  0
    6.2130   -1.2570    0.4770 H   0  0  0  0  0  0  0  0  0  0  0  0
    3.5790   -2.7990   -1.3620 H   0  0  0  0  0  0  0  0  0  0  0  0
    4.5050   -1.3950   -1.9200 H   0  0  0  0  0  0  0  0  0  0  0  0
    5.3380   -2.7400   -1.1450 H   0  0  0  0  0  0  0  0  0  0  0  0
   -0.8070   -0.2670   -2.0510 H   0  0  0  0  0  0  0  0  0  0  0  0
   -0.8870   -2.5720   -2.8960 H   0  0  0  0  0  0  0  0  0  0  0  0
    5.5040   -0.1130    1.8260 C   0  0  0  0  0  0  0  0  0  0  0  0
    6.0260   -0.7610    2.7330 O   0  0  0  0  0  0  0  0  0  0  0  0
    5.0560    1.2870    2.0190 C   0  0  0  0  0  0  0  0  0  0  0  0
    4.8080    2.1180    0.9270 C   0  0  0  0  0  0  0  0  0  0  0  0
    4.2840    3.3880    1.1200 C   0  0  0  0  0  0  0  0  0  0  0  0
    4.1140    3.9060    2.4120 C   0  0  0  0  0  0  0  0  0  0  0  0
    3.5720    5.2610    2.5780 C   0  0  0  0  0  0  0  0  0  0  0  0
    2.5370    5.5800    3.4960 C   0  0  0  0  0  0  0  0  0  0  0  0
    2.1210    6.9150    3.5560 C   0  0  0  0  0  0  0  0  0  0  0  0
    2.5290    7.8450    2.5990 C   0  0  0  0  0  0  0  0  0  0  0  0
    1.8660    9.0460    2.6200 O   0  0  0  0  0  0  0  0  0  0  0  0
    2.1250    9.9350    1.5360 C   0  0  0  0  0  0  0  0  0  0  0  0
    3.5300    7.5350    1.7070 C   0  0  0  0  0  0  0  0  0  0  0  0
    4.0790    6.2710    1.7380 C   0  0  0  0  0  0  0  0  0  0  0  0
    1.7870    4.5460    4.2500 C   0  0  0  0  0  0  0  0  0  0  0  0
    1.6650    4.5340    5.6380 C   0  0  0  0  0  0  0  0  0  0  0  0
    0.9880    3.4860    6.2840 C   0  0  0  0  0  0  0  0  0  0  0  0
    0.2980    2.4980    5.5640 C   0  0  0  0  0  0  0  0  0  0  0  0
    0.4310    2.4980    4.1810 C   0  0  0  0  0  0  0  0  0  0  0  0
    1.1820    3.4910    3.5520 C   0  0  0  0  0  0  0  0  0  0  0  0
   -0.5460    1.4300    6.2320 C   0  0  2  0  0  0  0  0  0  0  0  0
   -1.5700    1.9640    7.1470 N   0  0  0  0  0  0  0  0  0  0  0  0
    0.3630    0.4390    6.9630 C   0  0  0  0  0  0  0  0  0  0  0  0
    4.4640    3.0990    3.5060 C   0  0  0  0  0  0  0  0  0  0  0  0
    4.9030    1.7900    3.3140 C   0  0  0  0  0  0  0  0  0  0  0  0
    4.9850    1.7790   -0.0860 H   0  0  0  0  0  0  0  0  0  0  0  0
    3.9940    3.9720    0.2480 H   0  0  0  0  0  0  0  0  0  0  0  0
    1.4120    7.2170    4.3180 H   0  0  0  0  0  0  0  0  0  0  0  0
    1.3950   10.7360    1.5890 H   0  0  0  0  0  0  0  0  0  0  0  0
    2.0260    9.4440    0.5670 H   0  0  0  0  0  0  0  0  0  0  0  0
    3.1060   10.4110    1.6150 H   0  0  0  0  0  0  0  0  0  0  0  0
    3.9190    8.2540    0.9960 H   0  0  0  0  0  0  0  0  0  0  0  0
    4.8980    6.0550    1.0480 H   0  0  0  0  0  0  0  0  0  0  0  0
    2.1120    5.3230    6.2350 H   0  0  0  0  0  0  0  0  0  0  0  0
    0.9710    3.4660    7.3700 H   0  0  0  0  0  0  0  0  0  0  0  0
   -0.0350    1.7230    3.5760 H   0  0  0  0  0  0  0  0  0  0  0  0
    1.3270    3.4330    2.4810 H   0  0  0  0  0  0  0  0  0  0  0  0
   -1.0970    0.8730    5.4580 H   0  0  0  0  0  0  0  0  0  0  0  0
   -2.0230    1.1490    7.5420 H   0  0  0  0  0  0  0  0  0  0  0  0
    1.0990    0.0020    6.2780 H   0  0  0  0  0  0  0  0  0  0  0  0
    0.9090    0.9220    7.7810 H   0  0  0  0  0  0  0  0  0  0  0  0
   -0.2200   -0.3800    7.3970 H   0  0  0  0  0  0  0  0  0  0  0  0
    4.3600    3.4750    4.5220 H   0  0  0  0  0  0  0  0  0  0  0  0
    5.1150    1.1650    4.1780 H   0  0  0  0  0  0  0  0  0  0  0  0
   -2.6140    2.6840    6.5890 C   0  0  0  0  0  0  0  0  0  0  0  0
   -3.5880    2.1010    6.1220 O   0  0  0  0  0  0  0  0  0  0  0  0
   -2.5500    4.1730    6.6440 C   0  0  0  0  0  0  0  0  0  0  0  0
   -1.5760    4.8620    7.3660 C   0  0  0  0  0  0  0  0  0  0  0  0
   -1.4500    6.2520    7.2520 C   0  0  0  0  0  0  0  0  0  0  0  0
   -2.3620    6.9930    6.4870 C   0  0  0  0  0  0  0  0  0  0  0  0
   -2.3090    8.4640    6.4040 C   0  0  0  0  0  0  0  0  0  0  0  0
   -2.3480    9.1890    5.1840 C   0  0  0  0  0  0  0  0  0  0  0  0
   -2.4530   10.5940    5.2700 C   0  0  0  0  0  0  0  0  0  0  0  0
   -2.4520   11.2930    6.4800 C   0  0  0  0  0  0  0  0  0  0  0  0
   -2.4330   12.6520    6.3560 O   0  0  0  0  0  0  0  0  0  0  0  0
   -2.3430   13.4220    7.5470 C   0  0  0  0  0  0  0  0  0  0  0  0
   -2.4440   10.5740    7.6620 C   0  0  0  0  0  0  0  0  0  0  0  0
   -2.3570    9.1790    7.6220 C   0  0  0  0  0  0  0  0  0  0  0  0
   -2.2980    8.5770    3.8270 C   0  0  0  0  0  0  0  0  0  0  0  0
   -3.3030    8.7890    2.8860 C   0  0  0  0  0  0  0  0  0  0  0  0
   -3.2740    8.1760    1.6180 C   0  0  0  0  0  0  0  0  0  0  0  0
   -2.1820    7.4250    1.1790 C   0  0  0  0  0  0  0  0  0  0  0  0
   -1.1410    7.2400    2.1080 C   0  0  0  0  0  0  0  0  0  0  0  0
   -1.2330    7.7630    3.4170 C   0  0  0  0  0  0  0  0  0  0  0  0
   -2.1100    6.7990   -0.2170 C   0  0  2  0  0  0  0  0  0  0  0  0
   -2.0300    7.7770   -1.3110 N   0  0  0  0  0  0  0  0  0  0  0  0
   -3.3040    5.9030   -0.5720 C   0  0  0  0  0  0  0  0  0  0  0  0
   -3.4180    6.3010    5.8830 C   0  0  0  0  0  0  0  0  0  0  0  0
   -3.5100    4.9090    5.9540 C   0  0  0  0  0  0  0  0  0  0  0  0
   -0.8930    4.3220    8.0100 H   0  0  0  0  0  0  0  0  0  0  0  0
   -0.6300    6.7460    7.7700 H   0  0  0  0  0  0  0  0  0  0  0  0
   -2.5340   11.1760    4.3570 H   0  0  0  0  0  0  0  0  0  0  0  0
   -2.0670   14.4450    7.2680 H   0  0  0  0  0  0  0  0  0  0  0  0
   -1.5750   13.0540    8.2290 H   0  0  0  0  0  0  0  0  0  0  0  0
   -3.3090   13.4470    8.0550 H   0  0  0  0  0  0  0  0  0  0  0  0
   -2.4640   11.0580    8.6320 H   0  0  0  0  0  0  0  0  0  0  0  0
   -2.3370    8.6390    8.5680 H   0  0  0  0  0  0  0  0  0  0  0  0
   -4.1430    9.4330    3.1390 H   0  0  0  0  0  0  0  0  0  0  0  0
   -4.1250    8.3330    0.9550 H   0  0  0  0  0  0  0  0  0  0  0  0
   -0.2870    6.6170    1.8550 H   0  0  0  0  0  0  0  0  0  0  0  0
   -0.4820    7.5080    4.1410 H   0  0  0  0  0  0  0  0  0  0  0  0
   -1.1970    6.1910   -0.2760 H   0  0  0  0  0  0  0  0  0  0  0  0
   -1.9340    7.2280   -2.1560 H   0  0  0  0  0  0  0  0  0  0  0  0
   -3.3670    5.0220    0.0480 H   0  0  0  0  0  0  0  0  0  0  0  0
   -4.2580    6.4310   -0.4900 H   0  0  0  0  0  0  0  0  0  0  0  0
   -3.2200    5.5310   -1.6010 H   0  0  0  0  0  0  0  0  0  0  0  0
   -4.1690    6.8490    5.3170 H   0  0  0  0  0  0  0  0  0  0  0  0
   -4.3230    4.4050    5.4390 H   0  0  0  0  0  0  0  0  0  0  0  0
   -0.9650    8.6420   -1.3540 C   0  0  0  0  0  0  0  0  0  0  0  0
    0.0700    8.3250   -1.9290 O   0  0  0  0  0  0  0  0  0  0  0  0
   -1.1700    9.9900   -0.7670 C   0  0  0  0  0  0  0  0  0  0  0  0
   -2.4110   10.4300   -0.3060 C   0  0  0  0  0  0  0  0  0  0  0  0
   -2.5110   11.6240    0.4100 C   0  0  0  0  0  0  0  0  0  0  0  0
   -1.3920   12.4550    0.5840 C   0  0  0  0  0  0  0  0  0  0  0  0
   -1.5050   13.7550    1.2740 C   0  0  0  0  0  0  0  0  0  0  0  0
   -0.6270   14.2070    2.3050 C   0  0  0  0  0  0  0  0  0  0  0  0
   -0.8390   15.5170    2.7930 C   0  0  0  0  0  0  0  0  0  0  0  0
   -1.8560   16.3580    2.3180 C   0  0  0  0  0  0  0  0  0  0  0  0
   -1.9090   17.5960    2.8980 O   0  0  0  0  0  0  0  0  0  0  0  0
   -2.9120   18.4860    2.4210 C   0  0  0  0  0  0  0  0  0  0  0  0
   -2.7130   15.8970    1.3250 C   0  0  0  0  0  0  0  0  0  0  0  0
   -2.5340   14.6150    0.8190 C   0  0  0  0  0  0  0  0  0  0  0  0
    0.4520   13.3810    2.9310 C   0  0  0  0  0  0  0  0  0  0  0  0
    1.7870   13.7840    2.9790 C   0  0  0  0  0  0  0  0  0  0  0  0
    2.7980   12.9840    3.5820 C   0  0  0  0  0  0  0  0  0  0  0  0
    2.4970   11.7570    4.1840 C   0  0  0  0  0  0  0  0  0  0  0  0
    1.1400   11.3910    4.2040 C   0  0  0  0  0  0  0  0  0  0  0  0
    0.1560   12.1660    3.5530 C   0  0  0  0  0  0  0  0  0  0  0  0
    3.5710   10.8390    4.8070 C   0  0  2  0  0  0  0  0  0  0  0  0
    4.3050   11.5250    5.8550 N   0  0  0  0  0  0  0  0  0  0  0  0
    4.6360   10.3070    3.8510 C   0  0  0  0  0  0  0  0  0  0  0  0
   -0.1890   12.0650   -0.0160 C   0  0  0  0  0  0  0  0  0  0  0  0
   -0.0760   10.8400   -0.6750 C   0  0  0  0  0  0  0  0  0  0  0  0
   -3.3020    9.8330   -0.4640 H   0  0  0  0  0  0  0  0  0  0  0  0
   -3.4760   11.8950    0.8350 H   0  0  0  0  0  0  0  0  0  0  0  0
   -0.2000   15.8930    3.5940 H   0  0  0  0  0  0  0  0  0  0  0  0
   -2.8150   19.4260    2.9720 H   0  0  0  0  0  0  0  0  0  0  0  0
   -3.9160   18.0910    2.6130 H   0  0  0  0  0  0  0  0  0  0  0  0
   -2.7750   18.7080    1.3570 H   0  0  0  0  0  0  0  0  0  0  0  0
   -3.5170   16.4990    0.9250 H   0  0  0  0  0  0  0  0  0  0  0  0
   -3.2060   14.2860    0.0250 H   0  0  0  0  0  0  0  0  0  0  0  0
    2.0820   14.7340    2.5380 H   0  0  0  0  0  0  0  0  0  0  0  0
    3.8230   13.3450    3.5780 H   0  0  0  0  0  0  0  0  0  0  0  0
    0.8280   10.4530    4.6630 H   0  0  0  0  0  0  0  0  0  0  0  0
   -0.8540   11.7890    3.5050 H   0  0  0  0  0  0  0  0  0  0  0  0
    3.0690    9.9720    5.2590 H   0  0  0  0  0  0  0  0  0  0  0  0
    5.3120   11.4650    5.8860 H   0  0  0  0  0  0  0  0  0  0  0  0
    4.2410    9.6280    3.1140 H   0  0  0  0  0  0  0  0  0  0  0  0
    5.1540   11.1090    3.3190 H   0  0  0  0  0  0  0  0  0  0  0  0
    5.3850    9.7240    4.4020 H   0  0  0  0  0  0  0  0  0  0  0  0
    0.6880   12.7020    0.0550 H   0  0  0  0  0  0  0  0  0  0  0  0
    0.8830   10.5350   -1.0850 H   0  0  0  0  0  0  0  0  0  0  0  0
   -2.2230   -6.3990   -0.3240 C   0  0  0  0  0  0  0  0  0  0  0  0
   -2.9860   -5.4250   -1.0280 O   0  0  0  0  0  0  0  0  0  0  0  0
   -1.5230   -6.9280   -0.9750 H   0  0  0  0  0  0  0  0  0  0  0  0
   -2.9160   -7.1150    0.1220 H   0  0  0  0  0  0  0  0  0  0  0  0
   -1.6820   -5.8980    0.4860 H   0  0  0  0  0  0  0  0  0  0  0  0
    0.6680   10.5870    8.2710 C   0  0  0  0  0  0  0  0  0  0  0  0
    1.7130   11.6960    8.2850 C   0  0  0  0  0  0  0  0  0  0  0  0
    1.1050   13.0500    7.9300 C   0  0  0  0  0  0  0  0  0  0  0  0
    2.3780   11.6950    9.6580 C   0  0  0  0  0  0  0  0  0  0  0  0
    2.5800   11.3170    7.2140 O   0  0  0  0  0  0  0  0  0  0  0  0
    3.7710   11.9020    7.0360 C   0  0  0  0  0  0  0  0  0  0  0  0
    4.3610   12.6350    7.8110 O   0  0  0  0  0  0  0  0  0  0  0  0
   -0.1070   10.7580    9.0200 H   0  0  0  0  0  0  0  0  0  0  0  0
    0.2280   10.5010    7.2730 H   0  0  0  0  0  0  0  0  0  0  0  0
    1.1250    9.6090    8.4670 H   0  0  0  0  0  0  0  0  0  0  0  0
    0.5240   12.9840    7.0020 H   0  0  0  0  0  0  0  0  0  0  0  0
    1.8790   13.8010    7.7400 H   0  0  0  0  0  0  0  0  0  0  0  0
    0.4660   13.4240    8.7330 H   0  0  0  0  0  0  0  0  0  0  0  0
    2.9330   10.7650    9.8170 H   0  0  0  0  0  0  0  0  0  0  0  0
    3.0840   12.5210    9.7730 H   0  0  0  0  0  0  0  0  0  0  0  0
    1.6310   11.8010   10.4510 H   0  0  0  0  0  0  0  0  0  0  0  0
  1  3  1  0  0  0  0
  1178  1  0  0  0  0
  2  1  2  0  0  0  0
  3  4  1  0  0  0  0
  4  5  2  0  0  0  0
  4 26  1  0  0  0  0
  5 27  1  0  0  0  0
  6  7  1  0  0  0  0
  6  5  1  0  0  0  0
  7 14  2  0  0  0  0
  7  8  1  0  0  0  0
  8  9  2  0  0  0  0
  9 28  1  0  0  0  0
  9 10  1  0  0  0  0
 10 11  1  0  0  0  0
 11 12  1  0  0  0  0
 12 30  1  0  0  0  0
 12 29  1  0  0  0  0
 13 32  1  0  0  0  0
 13 10  2  0  0  0  0
 14 13  1  0  0  0  0
 15  8  1  0  0  0  0
 15 20  1  0  0  0  0
 16 15  2  0  0  0  0
 17 16  1  0  0  0  0
 17 18  2  0  0  0  0
 18 19  1  0  0  0  0
 19 20  2  0  0  0  0
 19 36  1  0  0  0  0
 20 37  1  0  0  0  0
 21 18  1  0  0  0  0
 21 22  1  0  0  0  0
 21 38  1  1  0  0  0
 22 45  1  0  0  0  0
 23 21  1  0  0  0  0
 24  6  2  0  0  0  0
 25 24  1  0  0  0  0
 25  3  2  0  0  0  0
 31 12  1  0  0  0  0
 33 14  1  0  0  0  0
 34 16  1  0  0  0  0
 35 17  1  0  0  0  0
 39 22  1  0  0  0  0
 40 23  1  0  0  0  0
 41 23  1  0  0  0  0
 42 23  1  0  0  0  0
 43 24  1  0  0  0  0
 44 25  1  0  0  0  0
 45 47  1  0  0  0  0
 45 46  2  0  0  0  0
 47 69  1  0  0  0  0
 48 49  1  0  0  0  0
 48 47  2  0  0  0  0
 49 50  2  0  0  0  0
 50 51  1  0  0  0  0
 50 68  1  0  0  0  0
 51 52  1  0  0  0  0
 52 53  2  0  0  0  0
 52 59  1  0  0  0  0
 53 72  1  0  0  0  0
 54 55  1  0  0  0  0
 54 53  1  0  0  0  0
 56 73  1  0  0  0  0
 56 75  1  0  0  0  0
 56 55  1  0  0  0  0
 57 58  1  0  0  0  0
 57 54  2  0  0  0  0
 58 51  2  0  0  0  0
 59 60  1  0  0  0  0
 60 78  1  0  0  0  0
 60 61  2  0  0  0  0
 61 79  1  0  0  0  0
 62 65  1  0  0  0  0
 62 61  1  0  0  0  0
 63 62  2  0  0  0  0
 64 63  1  0  0  0  0
 64 59  2  0  0  0  0
 65 82  1  6  0  0  0
 65 67  1  0  0  0  0
 65 66  1  0  0  0  0
 66 83  1  0  0  0  0
 67 86  1  0  0  0  0
 67 85  1  0  0  0  0
 68 87  1  0  0  0  0
 69 68  2  0  0  0  0
 69 88  1  0  0  0  0
 70 48  1  0  0  0  0
 71 49  1  0  0  0  0
 74 56  1  0  0  0  0
 76 57  1  0  0  0  0
 77 58  1  0  0  0  0
 80 63  1  0  0  0  0
 81 64  1  0  0  0  0
 84 67  1  0  0  0  0
 89 91  1  0  0  0  0
 89 66  1  0  0  0  0
 90 89  2  0  0  0  0
 91 92  1  0  0  0  0
 92114  1  0  0  0  0
 93 92  2  0  0  0  0
 93115  1  0  0  0  0
 94 93  1  0  0  0  0
 95 94  1  0  0  0  0
 95102  1  0  0  0  0
 96 97  1  0  0  0  0
 96 95  2  0  0  0  0
 97 98  2  0  0  0  0
 98101  1  0  0  0  0
 99 98  1  0  0  0  0
 99100  1  0  0  0  0
100119  1  0  0  0  0
100118  1  0  0  0  0
101120  1  0  0  0  0
102101  2  0  0  0  0
102121  1  0  0  0  0
103 96  1  0  0  0  0
104122  1  0  0  0  0
104103  2  0  0  0  0
105104  1  0  0  0  0
106105  2  0  0  0  0
106107  1  0  0  0  0
107108  2  0  0  0  0
108103  1  0  0  0  0
108125  1  0  0  0  0
109126  1  6  0  0  0
109106  1  0  0  0  0
110109  1  0  0  0  0
111129  1  0  0  0  0
111109  1  0  0  0  0
111128  1  0  0  0  0
112113  1  0  0  0  0
112 94  2  0  0  0  0
113 91  2  0  0  0  0
116 97  1  0  0  0  0
117100  1  0  0  0  0
123105  1  0  0  0  0
124107  1  0  0  0  0
127110  1  0  0  0  0
130111  1  0  0  0  0
131112  1  0  0  0  0
132113  1  0  0  0  0
133110  1  0  0  0  0
133135  1  0  0  0  0
134133  2  0  0  0  0
135157  2  0  0  0  0
135136  1  0  0  0  0
136137  2  0  0  0  0
137138  1  0  0  0  0
137159  1  0  0  0  0
138139  1  0  0  0  0
139140  1  0  0  0  0
140141  2  0  0  0  0
140147  1  0  0  0  0
141160  1  0  0  0  0
142141  1  0  0  0  0
142143  1  0  0  0  0
144162  1  0  0  0  0
144143  1  0  0  0  0
144161  1  0  0  0  0
145142  2  0  0  0  0
146139  2  0  0  0  0
146145  1  0  0  0  0
147148  2  0  0  0  0
147152  1  0  0  0  0
148149  1  0  0  0  0
149150  2  0  0  0  0
150151  1  0  0  0  0
150153  1  0  0  0  0
151168  1  0  0  0  0
152151  2  0  0  0  0
153170  1  1  0  0  0
153154  1  0  0  0  0
154171  1  0  0  0  0
154187  1  0  0  0  0
155174  1  0  0  0  0
155153  1  0  0  0  0
156175  1  0  0  0  0
156138  2  0  0  0  0
157156  1  0  0  0  0
158136  1  0  0  0  0
163144  1  0  0  0  0
164145  1  0  0  0  0
165146  1  0  0  0  0
166148  1  0  0  0  0
167149  1  0  0  0  0
169152  1  0  0  0  0
172155  1  0  0  0  0
173155  1  0  0  0  0
176157  1  0  0  0  0
177180  1  0  0  0  0
177181  1  0  0  0  0
178177  1  0  0  0  0
179177  1  0  0  0  0
182183  1  0  0  0  0
182191  1  0  0  0  0
182189  1  0  0  0  0
183185  1  0  0  0  0
184183  1  0  0  0  0
184194  1  0  0  0  0
185196  1  0  0  0  0
185195  1  0  0  0  0
185197  1  0  0  0  0
186183  1  0  0  0  0
187186  1  0  0  0  0
187188  2  0  0  0  0
190182  1  0  0  0  0
192184  1  0  0  0  0
193184  1  0  0  0  0
M  END
