pmp_tetramer.pdb
 OpenBabel10042408553D

197208  0  0  1  0  0  0  0  0999 V2000
    2.1420    4.9040   -0.7720 C   0  0  0  0  0  0  0  0  0  0  0  0
    0.9630    4.1340   -0.9680 O   0  0  0  0  0  0  0  0  0  0  0  0
    1.0070    2.8160   -0.6040 C   0  0  0  0  0  0  0  0  0  0  0  0
    2.1000    2.1540   -0.0440 C   0  0  0  0  0  0  0  0  0  0  0  0
    2.0280    0.7900    0.2910 C   0  0  0  0  0  0  0  0  0  0  0  0
    3.1790    0.0830    0.8820 C   0  0  0  0  0  0  0  0  0  0  0  0
    4.4770    0.2670    0.3790 C   0  0  0  0  0  0  0  0  0  0  0  0
    5.5700   -0.4080    0.9310 C   0  0  0  0  0  0  0  0  0  0  0  0
    5.3840   -1.2930    1.9950 C   0  0  0  0  0  0  0  0  0  0  0  0
    6.5540   -2.0810    2.4600 C   0  0  0  0  0  0  0  0  0  0  0  0
    7.6790   -1.9550    2.0050 O   0  0  0  0  0  0  0  0  0  0  0  0
    4.0970   -1.4930    2.5070 C   0  0  0  0  0  0  0  0  0  0  0  0
    3.0110   -0.8090    1.9560 C   0  0  0  0  0  0  0  0  0  0  0  0
    0.8200    0.1120    0.0510 C   0  0  0  0  0  0  0  0  0  0  0  0
   -0.3000    0.7520   -0.5000 C   0  0  0  0  0  0  0  0  0  0  0  0
   -1.5680    0.0230   -0.6830 C   0  0  0  0  0  0  0  0  0  0  0  0
   -1.6120   -1.2780   -1.2160 C   0  0  0  0  0  0  0  0  0  0  0  0
   -2.8250   -1.9630   -1.3770 C   0  0  0  0  0  0  0  0  0  0  0  0
   -4.0300   -1.3720   -0.9820 C   0  0  0  0  0  0  0  0  0  0  0  0
   -5.3650   -2.0650   -1.2310 C   0  0  1  0  0  0  0  0  0  0  0  0
   -6.1270   -2.3530    0.0610 C   0  0  0  0  0  0  0  0  0  0  0  0
   -6.1220   -1.3340   -2.2490 N   0  0  0  0  0  0  0  0  0  0  0  0
   -3.9790   -0.0940   -0.4060 C   0  0  0  0  0  0  0  0  0  0  0  0
   -2.7780    0.6010   -0.2870 C   0  0  0  0  0  0  0  0  0  0  0  0
   -0.1780    2.1110   -0.8260 C   0  0  0  0  0  0  0  0  0  0  0  0
    2.9750    4.5060   -1.3610 H   0  0  0  0  0  0  0  0  0  0  0  0
    1.9390    5.9190   -1.1290 H   0  0  0  0  0  0  0  0  0  0  0  0
    2.4020    4.9700    0.2890 H   0  0  0  0  0  0  0  0  0  0  0  0
    3.0220    2.6890    0.1600 H   0  0  0  0  0  0  0  0  0  0  0  0
    4.6490    0.9190   -0.4750 H   0  0  0  0  0  0  0  0  0  0  0  0
    6.5600   -0.2620    0.5030 H   0  0  0  0  0  0  0  0  0  0  0  0
    3.9170   -2.1940    3.3200 H   0  0  0  0  0  0  0  0  0  0  0  0
    2.0220   -0.9900    2.3760 H   0  0  0  0  0  0  0  0  0  0  0  0
    0.7430   -0.9420    0.3140 H   0  0  0  0  0  0  0  0  0  0  0  0
   -0.6930   -1.7720   -1.5270 H   0  0  0  0  0  0  0  0  0  0  0  0
   -2.8110   -2.9600   -1.8120 H   0  0  0  0  0  0  0  0  0  0  0  0
   -5.1620   -3.0370   -1.6990 H   0  0  0  0  0  0  0  0  0  0  0  0
   -5.5120   -2.9530    0.7400 H   0  0  0  0  0  0  0  0  0  0  0  0
   -6.4040   -1.4440    0.6010 H   0  0  0  0  0  0  0  0  0  0  0  0
   -7.0450   -2.9100   -0.1520 H   0  0  0  0  0  0  0  0  0  0  0  0
   -5.7030   -1.4360   -3.1570 H   0  0  0  0  0  0  0  0  0  0  0  0
   -4.8870    0.3970   -0.0610 H   0  0  0  0  0  0  0  0  0  0  0  0
   -2.8020    1.6030    0.1380 H   0  0  0  0  0  0  0  0  0  0  0  0
   -1.0230    2.6460   -1.2590 H   0  0  0  0  0  0  0  0  0  0  0  0
   -6.8430    7.9740   -5.5530 C   0  0  0  0  0  0  0  0  0  0  0  0
   -5.4830    7.9120   -5.9650 O   0  0  0  0  0  0  0  0  0  0  0  0
   -4.7900    6.7740   -5.6540 C   0  0  0  0  0  0  0  0  0  0  0  0
   -5.2960    5.6670   -4.9740 C   0  0  0  0  0  0  0  0  0  0  0  0
   -4.4870    4.5480   -4.7080 C   0  0  0  0  0  0  0  0  0  0  0  0
   -5.0260    3.3670   -4.0130 C   0  0  0  0  0  0  0  0  0  0  0  0
   -5.8380    3.4940   -2.8770 C   0  0  0  0  0  0  0  0  0  0  0  0
   -6.3780    2.3680   -2.2480 C   0  0  0  0  0  0  0  0  0  0  0  0
   -6.1120    1.0800   -2.7340 C   0  0  0  0  0  0  0  0  0  0  0  0
   -6.6400   -0.0830   -1.9480 C   0  0  0  0  0  0  0  0  0  0  0  0
   -7.4000    0.1150   -1.0060 O   0  0  0  0  0  0  0  0  0  0  0  0
   -5.2630    0.9410   -3.8360 C   0  0  0  0  0  0  0  0  0  0  0  0
   -4.7380    2.0710   -4.4690 C   0  0  0  0  0  0  0  0  0  0  0  0
   -3.1540    4.5720   -5.1500 C   0  0  0  0  0  0  0  0  0  0  0  0
   -2.6190    5.6660   -5.8450 C   0  0  0  0  0  0  0  0  0  0  0  0
   -1.2330    5.6300   -6.3410 C   0  0  0  0  0  0  0  0  0  0  0  0
   -0.1690    5.1600   -5.5490 C   0  0  0  0  0  0  0  0  0  0  0  0
    1.1440    5.1220   -6.0360 C   0  0  0  0  0  0  0  0  0  0  0  0
    1.4260    5.5330   -7.3450 C   0  0  0  0  0  0  0  0  0  0  0  0
    2.8600    5.5880   -7.8620 C   0  0  1  0  0  0  0  0  0  0  0  0
    3.0880    4.6690   -9.0590 C   0  0  0  0  0  0  0  0  0  0  0  0
    3.2630    6.9820   -8.0630 N   0  0  0  0  0  0  0  0  0  0  0  0
    0.3580    5.9530   -8.1480 C   0  0  0  0  0  0  0  0  0  0  0  0
   -0.9410    6.0290   -7.6490 C   0  0  0  0  0  0  0  0  0  0  0  0
   -3.4610    6.7630   -6.0840 C   0  0  0  0  0  0  0  0  0  0  0  0
   -6.9260    7.9230   -4.4620 H   0  0  0  0  0  0  0  0  0  0  0  0
   -7.2450    8.9400   -5.8710 H   0  0  0  0  0  0  0  0  0  0  0  0
   -7.4390    7.1900   -6.0330 H   0  0  0  0  0  0  0  0  0  0  0  0
   -6.3340    5.6400   -4.6570 H   0  0  0  0  0  0  0  0  0  0  0  0
   -6.0450    4.4760   -2.4560 H   0  0  0  0  0  0  0  0  0  0  0  0
   -6.9820    2.5030   -1.3520 H   0  0  0  0  0  0  0  0  0  0  0  0
   -4.9630   -0.0230   -4.2260 H   0  0  0  0  0  0  0  0  0  0  0  0
   -4.0960    1.9210   -5.3360 H   0  0  0  0  0  0  0  0  0  0  0  0
   -2.5180    3.7080   -4.9640 H   0  0  0  0  0  0  0  0  0  0  0  0
   -0.3540    4.8270   -4.5280 H   0  0  0  0  0  0  0  0  0  0  0  0
    1.9360    4.7660   -5.3800 H   0  0  0  0  0  0  0  0  0  0  0  0
    3.5230    5.2320   -7.0610 H   0  0  0  0  0  0  0  0  0  0  0  0
    2.8250    3.6400   -8.8030 H   0  0  0  0  0  0  0  0  0  0  0  0
    2.4820    4.9510   -9.9250 H   0  0  0  0  0  0  0  0  0  0  0  0
    4.1390    4.6920   -9.3640 H   0  0  0  0  0  0  0  0  0  0  0  0
    3.3720    7.4450   -7.1820 H   0  0  0  0  0  0  0  0  0  0  0  0
    0.5240    6.2570   -9.1800 H   0  0  0  0  0  0  0  0  0  0  0  0
   -1.7260    6.3940   -8.3080 H   0  0  0  0  0  0  0  0  0  0  0  0
   -3.0840    7.6330   -6.6190 H   0  0  0  0  0  0  0  0  0  0  0  0
   -1.0680   15.6460  -10.1170 C   0  0  0  0  0  0  0  0  0  0  0  0
   -1.7700   15.5600   -8.8830 O   0  0  0  0  0  0  0  0  0  0  0  0
   -1.6230   14.4090   -8.1580 C   0  0  0  0  0  0  0  0  0  0  0  0
   -0.8260   13.3190   -8.5040 C   0  0  0  0  0  0  0  0  0  0  0  0
   -0.7520   12.1840   -7.6760 C   0  0  0  0  0  0  0  0  0  0  0  0
    0.1130   11.0450   -8.0210 C   0  0  0  0  0  0  0  0  0  0  0  0
    0.1650   10.5340   -9.3250 C   0  0  0  0  0  0  0  0  0  0  0  0
    1.0290    9.4860   -9.6530 C   0  0  0  0  0  0  0  0  0  0  0  0
    1.8640    8.9090   -8.6840 C   0  0  0  0  0  0  0  0  0  0  0  0
    2.6840    7.7200   -9.0920 C   0  0  0  0  0  0  0  0  0  0  0  0
    2.7220    7.3850  -10.2620 O   0  0  0  0  0  0  0  0  0  0  0  0
    1.7730    9.3760   -7.3640 C   0  0  0  0  0  0  0  0  0  0  0  0
    0.9190   10.4350   -7.0460 C   0  0  0  0  0  0  0  0  0  0  0  0
   -1.5000   12.1790   -6.4880 C   0  0  0  0  0  0  0  0  0  0  0  0
   -2.3010   13.2630   -6.1060 C   0  0  0  0  0  0  0  0  0  0  0  0
   -3.0250   13.2390   -4.8240 C   0  0  0  0  0  0  0  0  0  0  0  0
   -3.7230   12.1000   -4.3840 C   0  0  0  0  0  0  0  0  0  0  0  0
   -4.4020   12.0860   -3.1590 C   0  0  0  0  0  0  0  0  0  0  0  0
   -4.3780   13.2090   -2.3240 C   0  0  0  0  0  0  0  0  0  0  0  0
   -5.1850   13.2460   -1.0320 C   0  0  1  0  0  0  0  0  0  0  0  0
   -4.3040   13.4270    0.2010 C   0  0  0  0  0  0  0  0  0  0  0  0
   -6.2840   14.2050   -1.1610 N   0  0  0  0  0  0  0  0  0  0  0  0
   -3.6370   14.3260   -2.7400 C   0  0  0  0  0  0  0  0  0  0  0  0
   -2.9990   14.3520   -3.9780 C   0  0  0  0  0  0  0  0  0  0  0  0
   -2.3500   14.3730   -6.9650 C   0  0  0  0  0  0  0  0  0  0  0  0
   -1.3840   14.8570  -10.8080 H   0  0  0  0  0  0  0  0  0  0  0  0
   -1.3180   16.6080  -10.5760 H   0  0  0  0  0  0  0  0  0  0  0  0
    0.0150   15.6240   -9.9600 H   0  0  0  0  0  0  0  0  0  0  0  0
   -0.2270   13.3370   -9.4100 H   0  0  0  0  0  0  0  0  0  0  0  0
   -0.4830   10.9380  -10.1000 H   0  0  0  0  0  0  0  0  0  0  0  0
    1.0270    9.0980  -10.6700 H   0  0  0  0  0  0  0  0  0  0  0  0
    2.3320    8.9360   -6.5480 H   0  0  0  0  0  0  0  0  0  0  0  0
    0.8940   10.7820   -6.0140 H   0  0  0  0  0  0  0  0  0  0  0  0
   -1.4410   11.3140   -5.8280 H   0  0  0  0  0  0  0  0  0  0  0  0
   -3.7550   11.2040   -5.0030 H   0  0  0  0  0  0  0  0  0  0  0  0
   -4.9450   11.1890   -2.8700 H   0  0  0  0  0  0  0  0  0  0  0  0
   -5.6900   12.2770   -0.9180 H   0  0  0  0  0  0  0  0  0  0  0  0
   -3.5440   12.6380    0.2460 H   0  0  0  0  0  0  0  0  0  0  0  0
   -3.7720   14.3820    0.2060 H   0  0  0  0  0  0  0  0  0  0  0  0
   -4.9060   13.3740    1.1150 H   0  0  0  0  0  0  0  0  0  0  0  0
   -6.9870   13.8670   -1.7950 H   0  0  0  0  0  0  0  0  0  0  0  0
   -3.5670   15.2120   -2.1130 H   0  0  0  0  0  0  0  0  0  0  0  0
   -2.4660   15.2570   -4.2640 H   0  0  0  0  0  0  0  0  0  0  0  0
   -2.9620   15.2350   -6.7070 H   0  0  0  0  0  0  0  0  0  0  0  0
   -8.2410   22.4790   -6.2590 C   0  0  0  0  0  0  0  0  0  0  0  0
   -8.1900   21.7120   -7.4560 O   0  0  0  0  0  0  0  0  0  0  0  0
   -7.7850   20.4100   -7.3450 C   0  0  0  0  0  0  0  0  0  0  0  0
   -7.4940   19.7420   -6.1570 C   0  0  0  0  0  0  0  0  0  0  0  0
   -7.0990   18.3930   -6.1650 C   0  0  0  0  0  0  0  0  0  0  0  0
   -6.8290   17.6710   -4.9120 C   0  0  0  0  0  0  0  0  0  0  0  0
   -6.0550   18.2410   -3.8920 C   0  0  0  0  0  0  0  0  0  0  0  0
   -5.8320   17.5550   -2.6940 C   0  0  0  0  0  0  0  0  0  0  0  0
   -6.3730   16.2780   -2.4880 C   0  0  0  0  0  0  0  0  0  0  0  0
   -6.0030   15.5610   -1.2240 C   0  0  0  0  0  0  0  0  0  0  0  0
   -5.3670   16.1510   -0.3560 O   0  0  0  0  0  0  0  0  0  0  0  0
   -7.1100   15.6870   -3.5180 C   0  0  0  0  0  0  0  0  0  0  0  0
   -7.3410   16.3810   -4.7070 C   0  0  0  0  0  0  0  0  0  0  0  0
   -7.0020   17.7310   -7.4000 C   0  0  0  0  0  0  0  0  0  0  0  0
   -7.2950   18.3710   -8.6090 C   0  0  0  0  0  0  0  0  0  0  0  0
   -7.2510   17.6250   -9.8770 C   0  0  0  0  0  0  0  0  0  0  0  0
   -6.2150   16.7270  -10.2010 C   0  0  0  0  0  0  0  0  0  0  0  0
   -6.1990   16.0250  -11.4190 C   0  0  0  0  0  0  0  0  0  0  0  0
   -7.2370   16.1920  -12.3380 C   0  0  0  0  0  0  0  0  0  0  0  0
   -7.2300   15.5450  -13.7150 C   0  0  1  0  0  0  0  0  0  0  0  0
   -8.3500   14.5180  -13.8910 C   0  0  0  0  0  0  0  0  0  0  0  0
   -7.1600   16.5850  -14.7490 N   0  0  0  0  0  0  0  0  0  0  0  0
   -8.2830   17.0420  -11.9810 C   0  0  0  0  0  0  0  0  0  0  0  0
   -8.2900   17.7640  -10.7950 C   0  0  0  0  0  0  0  0  0  0  0  0
   -7.6850   19.7200   -8.5560 C   0  0  0  0  0  0  0  0  0  0  0  0
   -7.2600   22.5270   -5.7760 H   0  0  0  0  0  0  0  0  0  0  0  0
   -8.5300   23.5000   -6.5280 H   0  0  0  0  0  0  0  0  0  0  0  0
   -9.0010   22.0890   -5.5730 H   0  0  0  0  0  0  0  0  0  0  0  0
   -7.5930   20.2470   -5.2010 H   0  0  0  0  0  0  0  0  0  0  0  0
   -5.5970   19.2190   -4.0290 H   0  0  0  0  0  0  0  0  0  0  0  0
   -5.2000   18.0140   -1.9350 H   0  0  0  0  0  0  0  0  0  0  0  0
   -7.5050   14.6810   -3.4540 H   0  0  0  0  0  0  0  0  0  0  0  0
   -7.9310   15.8940   -5.4820 H   0  0  0  0  0  0  0  0  0  0  0  0
   -6.7150   16.6810   -7.4190 H   0  0  0  0  0  0  0  0  0  0  0  0
   -5.3890   16.5770   -9.5080 H   0  0  0  0  0  0  0  0  0  0  0  0
   -5.3640   15.3620  -11.6340 H   0  0  0  0  0  0  0  0  0  0  0  0
   -6.2860   14.9970  -13.8230 H   0  0  0  0  0  0  0  0  0  0  0  0
   -8.2930   13.7470  -13.1130 H   0  0  0  0  0  0  0  0  0  0  0  0
   -9.3490   14.9510  -13.8140 H   0  0  0  0  0  0  0  0  0  0  0  0
   -8.2720   14.0240  -14.8660 H   0  0  0  0  0  0  0  0  0  0  0  0
   -6.2890   17.1000  -14.7310 H   0  0  0  0  0  0  0  0  0  0  0  0
   -9.1100   17.1750  -12.6530 H   0  0  0  0  0  0  0  0  0  0  0  0
   -9.1260   18.4310  -10.6030 H   0  0  0  0  0  0  0  0  0  0  0  0
   -7.9220   20.2570   -9.4740 H   0  0  0  0  0  0  0  0  0  0  0  0
    6.8790   -4.2590    3.2180 C   0  0  0  0  0  0  0  0  0  0  0  0
    6.1290   -3.0510    3.3040 O   0  0  0  0  0  0  0  0  0  0  0  0
    6.4870   -4.8270    2.3690 H   0  0  0  0  0  0  0  0  0  0  0  0
    6.7080   -4.8380    4.1280 H   0  0  0  0  0  0  0  0  0  0  0  0
    7.9530   -4.0930    3.0970 H   0  0  0  0  0  0  0  0  0  0  0  0
  -11.7320   16.5980  -15.4270 C   0  0  0  0  0  0  0  0  0  0  0  0
  -10.6290   17.6490  -15.2280 C   0  0  0  0  0  0  0  0  0  0  0  0
  -10.6300   18.6000  -16.4280 C   0  0  0  0  0  0  0  0  0  0  0  0
  -10.9350   18.4080  -13.9310 C   0  0  0  0  0  0  0  0  0  0  0  0
   -9.4000   16.8780  -15.1040 O   0  0  0  0  0  0  0  0  0  0  0  0
   -8.1720   17.4520  -15.0690 C   0  0  0  0  0  0  0  0  0  0  0  0
   -7.9360   18.6360  -15.2700 O   0  0  0  0  0  0  0  0  0  0  0  0
  -12.7250   17.0580  -15.4970 H   0  0  0  0  0  0  0  0  0  0  0  0
  -11.5560   16.0090  -16.3330 H   0  0  0  0  0  0  0  0  0  0  0  0
  -11.7450   15.8860  -14.5930 H   0  0  0  0  0  0  0  0  0  0  0  0
  -10.3630   18.0710  -17.3470 H   0  0  0  0  0  0  0  0  0  0  0  0
   -9.9130   19.4160  -16.3060 H   0  0  0  0  0  0  0  0  0  0  0  0
  -11.6140   19.0620  -16.5620 H   0  0  0  0  0  0  0  0  0  0  0  0
  -11.0240   17.7170  -13.0860 H   0  0  0  0  0  0  0  0  0  0  0  0
  -10.1450   19.1240  -13.6880 H   0  0  0  0  0  0  0  0  0  0  0  0
  -11.8850   18.9500  -13.9940 H   0  0  0  0  0  0  0  0  0  0  0  0
  1 28  1  0  0  0  0
  2  1  1  0  0  0  0
  2  3  1  0  0  0  0
  3  4  1  0  0  0  0
  4 29  1  0  0  0  0
  4  5  2  0  0  0  0
  5  6  1  0  0  0  0
  6 13  1  0  0  0  0
  7  6  2  0  0  0  0
  7  8  1  0  0  0  0
  8  9  2  0  0  0  0
  9 10  1  0  0  0  0
  9 12  1  0  0  0  0
 10178  1  0  0  0  0
 11 10  2  0  0  0  0
 12 32  1  0  0  0  0
 13 33  1  0  0  0  0
 13 12  2  0  0  0  0
 14  5  1  0  0  0  0
 14 34  1  0  0  0  0
 15 14  2  0  0  0  0
 16 15  1  0  0  0  0
 16 24  1  0  0  0  0
 17 16  2  0  0  0  0
 18 17  1  0  0  0  0
 18 19  2  0  0  0  0
 19 23  1  0  0  0  0
 20 37  1  6  0  0  0
 20 19  1  0  0  0  0
 20 21  1  0  0  0  0
 21 39  1  0  0  0  0
 21 38  1  0  0  0  0
 22 54  1  0  0  0  0
 22 20  1  0  0  0  0
 23 24  2  0  0  0  0
 23 42  1  0  0  0  0
 24 43  1  0  0  0  0
 25  3  2  0  0  0  0
 25 15  1  0  0  0  0
 26  1  1  0  0  0  0
 27  1  1  0  0  0  0
 30  7  1  0  0  0  0
 31  8  1  0  0  0  0
 35 17  1  0  0  0  0
 36 18  1  0  0  0  0
 40 21  1  0  0  0  0
 41 22  1  0  0  0  0
 44 25  1  0  0  0  0
 45 70  1  0  0  0  0
 46 47  1  0  0  0  0
 46 45  1  0  0  0  0
 47 48  1  0  0  0  0
 48 49  2  0  0  0  0
 48 73  1  0  0  0  0
 49 50  1  0  0  0  0
 50 51  1  0  0  0  0
 51 74  1  0  0  0  0
 51 52  2  0  0  0  0
 52 75  1  0  0  0  0
 53 52  1  0  0  0  0
 53 54  1  0  0  0  0
 54 55  2  0  0  0  0
 56 53  2  0  0  0  0
 57 50  2  0  0  0  0
 57 56  1  0  0  0  0
 58 78  1  0  0  0  0
 58 49  1  0  0  0  0
 59 58  2  0  0  0  0
 60 59  1  0  0  0  0
 60 61  1  0  0  0  0
 61 79  1  0  0  0  0
 62 61  2  0  0  0  0
 62 80  1  0  0  0  0
 63 62  1  0  0  0  0
 64 63  1  0  0  0  0
 64 81  1  1  0  0  0
 65 82  1  0  0  0  0
 65 64  1  0  0  0  0
 66 64  1  0  0  0  0
 66 85  1  0  0  0  0
 67 68  1  0  0  0  0
 67 63  2  0  0  0  0
 68 60  2  0  0  0  0
 69 59  1  0  0  0  0
 69 47  2  0  0  0  0
 71 45  1  0  0  0  0
 72 45  1  0  0  0  0
 76 56  1  0  0  0  0
 77 57  1  0  0  0  0
 83 65  1  0  0  0  0
 84 65  1  0  0  0  0
 86 67  1  0  0  0  0
 87 68  1  0  0  0  0
 88 69  1  0  0  0  0
 89116  1  0  0  0  0
 89 90  1  0  0  0  0
 90 91  1  0  0  0  0
 91113  1  0  0  0  0
 92 91  2  0  0  0  0
 92 93  1  0  0  0  0
 93102  2  0  0  0  0
 94 93  1  0  0  0  0
 94101  1  0  0  0  0
 95 94  2  0  0  0  0
 96 95  1  0  0  0  0
 96 97  2  0  0  0  0
 97100  1  0  0  0  0
 98 97  1  0  0  0  0
 98 66  1  0  0  0  0
 99 98  2  0  0  0  0
100101  2  0  0  0  0
100120  1  0  0  0  0
101121  1  0  0  0  0
102103  1  0  0  0  0
102122  1  0  0  0  0
103104  1  0  0  0  0
104105  2  0  0  0  0
104112  1  0  0  0  0
105106  1  0  0  0  0
106124  1  0  0  0  0
106107  2  0  0  0  0
107108  1  0  0  0  0
108125  1  1  0  0  0
108109  1  0  0  0  0
109127  1  0  0  0  0
109126  1  0  0  0  0
109128  1  0  0  0  0
110108  1  0  0  0  0
111107  1  0  0  0  0
111130  1  0  0  0  0
112111  2  0  0  0  0
113132  1  0  0  0  0
113103  2  0  0  0  0
114 89  1  0  0  0  0
115 89  1  0  0  0  0
117 92  1  0  0  0  0
118 95  1  0  0  0  0
119 96  1  0  0  0  0
123105  1  0  0  0  0
129110  1  0  0  0  0
131112  1  0  0  0  0
133158  1  0  0  0  0
133160  1  0  0  0  0
134135  1  0  0  0  0
134133  1  0  0  0  0
135136  1  0  0  0  0
136161  1  0  0  0  0
137136  2  0  0  0  0
137138  1  0  0  0  0
138145  2  0  0  0  0
138139  1  0  0  0  0
139140  2  0  0  0  0
140141  1  0  0  0  0
140163  1  0  0  0  0
141142  1  0  0  0  0
142110  1  0  0  0  0
142143  2  0  0  0  0
144164  1  0  0  0  0
144141  2  0  0  0  0
145144  1  0  0  0  0
146137  1  0  0  0  0
147157  1  0  0  0  0
147146  2  0  0  0  0
148147  1  0  0  0  0
149148  1  0  0  0  0
149167  1  0  0  0  0
150149  2  0  0  0  0
151155  2  0  0  0  0
151150  1  0  0  0  0
152169  1  6  0  0  0
152151  1  0  0  0  0
153171  1  0  0  0  0
153152  1  0  0  0  0
153170  1  0  0  0  0
154173  1  0  0  0  0
154152  1  0  0  0  0
155156  1  0  0  0  0
156175  1  0  0  0  0
156148  2  0  0  0  0
157135  2  0  0  0  0
159133  1  0  0  0  0
162139  1  0  0  0  0
165145  1  0  0  0  0
166146  1  0  0  0  0
168150  1  0  0  0  0
172153  1  0  0  0  0
174155  1  0  0  0  0
176157  1  0  0  0  0
177178  1  0  0  0  0
177180  1  0  0  0  0
179177  1  0  0  0  0
181177  1  0  0  0  0
182183  1  0  0  0  0
182191  1  0  0  0  0
183186  1  0  0  0  0
183185  1  0  0  0  0
184193  1  0  0  0  0
184183  1  0  0  0  0
185196  1  0  0  0  0
185195  1  0  0  0  0
186187  1  0  0  0  0
187154  1  0  0  0  0
188187  2  0  0  0  0
189182  1  0  0  0  0
190182  1  0  0  0  0
192184  1  0  0  0  0
194184  1  0  0  0  0
197185  1  0  0  0  0
M  END
